conservative_sidechains.sdf
  ChemDraw01222020072D

  8  8  0  0  0  0  0  0  0  0999 V2000
   -0.7145    0.4125    0.0000 C   0  0  0  0  0  0  0  0  0  0  0  0
   -0.7145   -0.4125    0.0000 C   0  0  0  0  0  0  0  0  0  0  0  0
   -0.0000   -0.8250    0.0000 C   0  0  0  0  0  0  0  0  0  0  0  0
    0.7145   -0.4125    0.0000 C   0  0  0  0  0  0  0  0  0  0  0  0
    0.7145    0.4125    0.0000 C   0  0  0  0  0  0  0  0  0  0  0  0
   -0.0000    0.8250    0.0000 C   0  0  0  0  0  0  0  0  0  0  0  0
    1.4289   -0.8250    0.0000 O   0  0  0  0  0  0  0  0  0  0  0  0
   -1.4289    0.8250    0.0000 C   0  0  0  0  0  0  0  0  0  0  0  0
  1  2  2  0      
  2  3  1  0      
  3  4  2  0      
  4  5  1  0      
  5  6  2  0      
  6  1  1  0      
  4  7  1  0      
  1  8  1  0      
M  END
$$$$
conservative_sidechains.sdf
  ChemDraw01222020072D

  6  6  0  0  0  0  0  0  0  0999 V2000
    0.2404   -0.2869    0.0000 C   0  0  0  0  0  0  0  0  0  0  0  0
    0.6529    0.4275    0.0000 C   0  0  0  0  0  0  0  0  0  0  0  0
    0.1008    1.0406    0.0000 C   0  0  0  0  0  0  0  0  0  0  0  0
   -0.6529    0.7051    0.0000 C   0  0  0  0  0  0  0  0  0  0  0  0
   -0.5666   -0.1154    0.0000 N   0  0  0  0  0  0  0  0  0  0  0  0
    0.5759   -1.0406    0.0000 C   0  0  0  0  0  0  0  0  0  0  0  0
  1  2  2  0      
  2  3  1  0      
  3  4  2  0      
  4  5  1  0      
  5  1  1  0      
  1  6  1  0      
M  END
$$$$
conservative_sidechains.sdf
  ChemDraw01222020072D

  6  6  0  0  0  0  0  0  0  0999 V2000
    0.5038   -0.4735    0.0000 N   0  0  0  0  0  0  0  0  0  0  0  0
    0.9163    0.2409    0.0000 C   0  0  0  0  0  0  0  0  0  0  0  0
    0.3643    0.8540    0.0000 N   0  0  0  0  0  0  0  0  0  0  0  0
   -0.3894    0.5185    0.0000 C   0  0  0  0  0  0  0  0  0  0  0  0
   -0.3032   -0.3020    0.0000 C   0  0  0  0  0  0  0  0  0  0  0  0
   -0.9163   -0.8540    0.0000 C   0  0  0  0  0  0  0  0  0  0  0  0
  2  3  1  0      
  4  5  2  0      
  1  2  2  0      
  4  3  1  0      
  5  1  1  0      
  5  6  1  0      
M  END
$$$$
conservative_sidechains.sdf
  ChemDraw01222020072D

 10 11  0  0  0  0  0  0  0  0999 V2000
    1.5465    0.4588    0.0000 C   0  0  0  0  0  0  0  0  0  0  0  0
    1.0374    1.1079    0.0000 C   0  0  0  0  0  0  0  0  0  0  0  0
    0.2206    0.9916    0.0000 C   0  0  0  0  0  0  0  0  0  0  0  0
   -0.0870    0.2261    0.0000 C   0  0  0  0  0  0  0  0  0  0  0  0
    0.4222   -0.4231    0.0000 C   0  0  0  0  0  0  0  0  0  0  0  0
    1.2389   -0.3067    0.0000 C   0  0  0  0  0  0  0  0  0  0  0  0
   -0.8617   -0.0576    0.0000 C   0  0  0  0  0  0  0  0  0  0  0  0
   -0.8314   -0.8820    0.0000 C   0  0  0  0  0  0  0  0  0  0  0  0
   -0.0379   -1.1079    0.0000 N   0  0  0  0  0  0  0  0  0  0  0  0
   -1.5465    0.4025    0.0000 C   0  0  0  0  0  0  0  0  0  0  0  0
  1  2  2  0      
  2  3  1  0      
  3  4  2  0      
  4  5  1  0      
  5  6  2  0      
  6  1  1  0      
  4  7  1  0      
  7  8  2  0      
  8  9  1  0      
  9  5  1  0      
  7 10  1  0      
M  END
$$$$
conservative_sidechains.sdf
  ChemDraw01222020072D

  6  6  0  0  0  0  0  0  0  0999 V2000
   -0.6348    0.8048    0.0000 C   0  0  0  0  0  0  0  0  0  0  0  0
   -0.6348   -0.0202    0.0000 O   0  0  0  0  0  0  0  0  0  0  0  0
    0.1498   -0.2751    0.0000 C   0  0  0  0  0  0  0  0  0  0  0  0
    0.6348    0.3923    0.0000 C   0  0  0  0  0  0  0  0  0  0  0  0
    0.1498    1.0597    0.0000 C   0  0  0  0  0  0  0  0  0  0  0  0
    0.4048   -1.0597    0.0000 C   0  0  0  0  0  0  0  0  0  0  0  0
  1  2  1  0      
  2  3  1  0      
  3  4  2  0      
  4  5  1  0      
  5  1  2  0      
  3  6  1  0      
M  END
$$$$
conservative_sidechains.sdf
  ChemDraw01222020072D

  6  6  0  0  0  0  0  0  0  0999 V2000
   -0.6348    0.8048    0.0000 C   0  0  0  0  0  0  0  0  0  0  0  0
   -0.6348   -0.0202    0.0000 S   0  0  0  0  0  0  0  0  0  0  0  0
    0.1498   -0.2751    0.0000 C   0  0  0  0  0  0  0  0  0  0  0  0
    0.6348    0.3923    0.0000 C   0  0  0  0  0  0  0  0  0  0  0  0
    0.1498    1.0597    0.0000 C   0  0  0  0  0  0  0  0  0  0  0  0
    0.4048   -1.0597    0.0000 C   0  0  0  0  0  0  0  0  0  0  0  0
  1  2  1  0      
  2  3  1  0      
  3  4  2  0      
  4  5  1  0      
  5  1  2  0      
  3  6  1  0      
M  END
$$$$
conservative_sidechains.sdf
  ChemDraw01222020072D

  8  8  0  0  0  0  0  0  0  0999 V2000
   -0.7145    0.4125    0.0000 C   0  0  0  0  0  0  0  0  0  0  0  0
   -0.7145   -0.4125    0.0000 C   0  0  0  0  0  0  0  0  0  0  0  0
   -0.0000   -0.8250    0.0000 C   0  0  0  0  0  0  0  0  0  0  0  0
    0.7145   -0.4125    0.0000 C   0  0  0  0  0  0  0  0  0  0  0  0
    0.7145    0.4125    0.0000 C   0  0  0  0  0  0  0  0  0  0  0  0
   -0.0000    0.8250    0.0000 C   0  0  0  0  0  0  0  0  0  0  0  0
    1.4289   -0.8250    0.0000 O   0  0  0  0  0  0  0  0  0  0  0  0
   -1.4289   -0.8250    0.0000 C   0  0  0  0  0  0  0  0  0  0  0  0
  1  2  2  0      
  2  3  1  0      
  3  4  2  0      
  4  5  1  0      
  5  6  2  0      
  6  1  1  0      
  4  7  1  0      
  2  8  1  0      
M  END
$$$$
conservative_sidechains.sdf
  ChemDraw01222020072D

  6  6  0  0  0  0  0  0  0  0999 V2000
    0.5038   -0.4735    0.0000 C   0  0  0  0  0  0  0  0  0  0  0  0
    0.9163    0.2409    0.0000 C   0  0  0  0  0  0  0  0  0  0  0  0
    0.3642    0.8540    0.0000 C   0  0  0  0  0  0  0  0  0  0  0  0
   -0.3894    0.5185    0.0000 C   0  0  0  0  0  0  0  0  0  0  0  0
   -0.3032   -0.3020    0.0000 N   0  0  0  0  0  0  0  0  0  0  0  0
   -0.9163   -0.8540    0.0000 C   0  0  0  0  0  0  0  0  0  0  0  0
  1  2  2  0      
  2  3  1  0      
  3  4  2  0      
  4  5  1  0      
  5  1  1  0      
  5  6  1  0      
M  END
$$$$
conservative_sidechains.sdf
  ChemDraw01222020072D

 10 11  0  0  0  0  0  0  0  0999 V2000
   -1.7618    0.4125    0.0000 C   0  0  0  0  0  0  0  0  0  0  0  0
   -1.7618   -0.4125    0.0000 C   0  0  0  0  0  0  0  0  0  0  0  0
   -1.0473   -0.8250    0.0000 C   0  0  0  0  0  0  0  0  0  0  0  0
   -0.3328   -0.4125    0.0000 C   0  0  0  0  0  0  0  0  0  0  0  0
   -0.3328    0.4125    0.0000 C   0  0  0  0  0  0  0  0  0  0  0  0
   -1.0473    0.8250    0.0000 C   0  0  0  0  0  0  0  0  0  0  0  0
    0.4518   -0.6674    0.0000 C   0  0  0  0  0  0  0  0  0  0  0  0
    0.9367    0.0000    0.0000 N   0  0  0  0  0  0  0  0  0  0  0  0
    0.4518    0.6674    0.0000 C   0  0  0  0  0  0  0  0  0  0  0  0
    1.7618    0.0000    0.0000 C   0  0  0  0  0  0  0  0  0  0  0  0
  1  2  1  0      
  2  3  2  0      
  3  4  1  0      
  4  5  1  0      
  5  6  1  0      
  6  1  2  0      
  4  7  2  0      
  7  8  1  0      
  8  9  1  0      
  9  5  2  0      
  8 10  1  0      
M  END
$$$$
conservative_sidechains.sdf
  ChemDraw01222020072D

 12 13  0  0  0  0  0  0  0  0999 V2000
   -1.4289   -0.4125    0.0000 C   0  0  0  0  0  0  0  0  0  0  0  0
   -0.7145   -0.8250    0.0000 C   0  0  0  0  0  0  0  0  0  0  0  0
   -0.0000   -0.4125    0.0000 C   0  0  0  0  0  0  0  0  0  0  0  0
   -0.0000    0.4125    0.0000 N   0  0  0  0  0  0  0  0  0  0  0  0
    0.7145   -0.8250    0.0000 C   0  0  0  0  0  0  0  0  0  0  0  0
    1.4289   -0.4125    0.0000 C   0  0  0  0  0  0  0  0  0  0  0  0
    1.4289    0.4125    0.0000 C   0  0  0  0  0  0  0  0  0  0  0  0
    0.7145    0.8250    0.0000 C   0  0  0  0  0  0  0  0  0  0  0  0
    0.7145    1.6500    0.0000 O   0  0  0  0  0  0  0  0  0  0  0  0
   -1.4289    0.4125    0.0000 C   0  0  0  0  0  0  0  0  0  0  0  0
   -0.7145    0.8250    0.0000 C   0  0  0  0  0  0  0  0  0  0  0  0
    0.7145   -1.6500    0.0000 C   0  0  0  0  0  0  0  0  0  0  0  0
  1  2  2  0      
  3  4  1  0      
  3  5  2  0      
  6  7  2  0      
  8  4  1  0      
  8  9  2  0      
  2  3  1  0      
  1 10  1  0      
  4 11  1  0      
 10 11  2  0      
  6  5  1  0      
  7  8  1  0      
  5 12  1  0      
M  END
$$$$
conservative_sidechains.sdf
  ChemDraw01222020072D

  9 10  0  0  0  0  0  0  0  0999 V2000
   -0.7719    1.0768    0.0000 C   0  0  0  0  0  0  0  0  0  0  0  0
   -1.2693    0.4187    0.0000 C   0  0  0  0  0  0  0  0  0  0  0  0
   -0.7971   -0.2578    0.0000 S   0  0  0  0  0  0  0  0  0  0  0  0
   -0.0078   -0.0178    0.0000 C   0  0  0  0  0  0  0  0  0  0  0  0
    0.0078    0.8071    0.0000 C   0  0  0  0  0  0  0  0  0  0  0  0
    0.7719   -0.2875    0.0000 C   0  0  0  0  0  0  0  0  0  0  0  0
    1.2693    0.3706    0.0000 C   0  0  0  0  0  0  0  0  0  0  0  0
    0.7971    1.0471    0.0000 S   0  0  0  0  0  0  0  0  0  0  0  0
    1.0119   -1.0768    0.0000 C   0  0  0  0  0  0  0  0  0  0  0  0
  1  2  2  0      
  2  3  1  0      
  3  4  1  0      
  4  5  2  0      
  5  1  1  0      
  4  6  1  0      
  6  7  2  0      
  7  8  1  0      
  8  5  1  0      
  6  9  1  0      
M  END
$$$$
conservative_sidechains.sdf
  ChemDraw01222020072D

  9 10  0  0  0  0  0  0  0  0999 V2000
   -1.2683    0.4519    0.0000 C   0  0  0  0  0  0  0  0  0  0  0  0
   -0.8126   -0.2357    0.0000 C   0  0  0  0  0  0  0  0  0  0  0  0
   -0.0177   -0.0147    0.0000 C   0  0  0  0  0  0  0  0  0  0  0  0
    0.0177    0.8095    0.0000 C   0  0  0  0  0  0  0  0  0  0  0  0
   -0.7552    1.0979    0.0000 O   0  0  0  0  0  0  0  0  0  0  0  0
    0.7552   -0.3031    0.0000 N   0  0  0  0  0  0  0  0  0  0  0  0
    1.2683    0.3429    0.0000 C   0  0  0  0  0  0  0  0  0  0  0  0
    0.8126    1.0306    0.0000 C   0  0  0  0  0  0  0  0  0  0  0  0
    0.9763   -1.0979    0.0000 C   0  0  0  0  0  0  0  0  0  0  0  0
  1  2  2  0      
  2  3  1  0      
  3  4  2  0      
  4  5  1  0      
  5  1  1  0      
  3  6  1  0      
  6  7  1  0      
  7  8  2  0      
  8  4  1  0      
  6  9  1  0      
M  END
$$$$
conservative_sidechains.sdf
  ChemDraw01222020072D

 12 13  0  0  0  0  0  0  0  0999 V2000
   -1.7861   -0.8250    0.0000 C   0  0  0  0  0  0  0  0  0  0  0  0
   -1.0717   -1.2375    0.0000 C   0  0  0  0  0  0  0  0  0  0  0  0
   -0.3572   -0.8250    0.0000 C   0  0  0  0  0  0  0  0  0  0  0  0
   -0.3572    0.0000    0.0000 N   0  0  0  0  0  0  0  0  0  0  0  0
    0.3572   -1.2375    0.0000 C   0  0  0  0  0  0  0  0  0  0  0  0
    1.0717   -0.8250    0.0000 C   0  0  0  0  0  0  0  0  0  0  0  0
    1.0717    0.0000    0.0000 C   0  0  0  0  0  0  0  0  0  0  0  0
    0.3572    0.4125    0.0000 C   0  0  0  0  0  0  0  0  0  0  0  0
    0.3572    1.2375    0.0000 O   0  0  0  0  0  0  0  0  0  0  0  0
   -1.7861    0.0000    0.0000 C   0  0  0  0  0  0  0  0  0  0  0  0
   -1.0717    0.4125    0.0000 C   0  0  0  0  0  0  0  0  0  0  0  0
    1.7861   -1.2375    0.0000 C   0  0  0  0  0  0  0  0  0  0  0  0
  1  2  2  0      
  3  4  1  0      
  3  5  2  0      
  6  7  2  0      
  8  4  1  0      
  8  9  2  0      
  2  3  1  0      
  1 10  1  0      
  4 11  1  0      
 10 11  2  0      
  6  5  1  0      
  7  8  1  0      
  6 12  1  0      
M  END
$$$$
conservative_sidechains.sdf
  ChemDraw01222020072D

 10 11  0  0  0  0  0  0  0  0999 V2000
   -1.3493    0.8250    0.0000 C   0  0  0  0  0  0  0  0  0  0  0  0
   -1.3493    0.0000    0.0000 C   0  0  0  0  0  0  0  0  0  0  0  0
   -0.6348   -0.4125    0.0000 C   0  0  0  0  0  0  0  0  0  0  0  0
    0.0797    0.0000    0.0000 C   0  0  0  0  0  0  0  0  0  0  0  0
    0.0797    0.8250    0.0000 C   0  0  0  0  0  0  0  0  0  0  0  0
   -0.6348    1.2375    0.0000 C   0  0  0  0  0  0  0  0  0  0  0  0
    0.8643   -0.2549    0.0000 C   0  0  0  0  0  0  0  0  0  0  0  0
    1.3493    0.4125    0.0000 N   0  0  0  0  0  0  0  0  0  0  0  0
    0.8643    1.0799    0.0000 C   0  0  0  0  0  0  0  0  0  0  0  0
   -0.6348   -1.2375    0.0000 C   0  0  0  0  0  0  0  0  0  0  0  0
  1  2  1  0      
  2  3  2  0      
  3  4  1  0      
  4  5  1  0      
  5  6  1  0      
  6  1  2  0      
  4  7  2  0      
  7  8  1  0      
  8  9  1  0      
  9  5  2  0      
  3 10  1  0      
M  END
$$$$
conservative_sidechains.sdf
  ChemDraw01222020072D

  9 10  0  0  0  0  0  0  0  0999 V2000
   -1.2684    0.4073    0.0000 C   0  0  0  0  0  0  0  0  0  0  0  0
   -0.8126   -0.2803    0.0000 C   0  0  0  0  0  0  0  0  0  0  0  0
   -0.0177   -0.0593    0.0000 C   0  0  0  0  0  0  0  0  0  0  0  0
    0.0177    0.7649    0.0000 C   0  0  0  0  0  0  0  0  0  0  0  0
   -0.7552    1.0533    0.0000 O   0  0  0  0  0  0  0  0  0  0  0  0
    0.7552   -0.3477    0.0000 N   0  0  0  0  0  0  0  0  0  0  0  0
    1.2684    0.2983    0.0000 C   0  0  0  0  0  0  0  0  0  0  0  0
    0.8126    0.9859    0.0000 C   0  0  0  0  0  0  0  0  0  0  0  0
   -1.1009   -1.0533    0.0000 C   0  0  0  0  0  0  0  0  0  0  0  0
  1  2  2  0      
  2  3  1  0      
  3  4  2  0      
  4  5  1  0      
  5  1  1  0      
  3  6  1  0      
  6  7  1  0      
  7  8  2  0      
  8  4  1  0      
  2  9  1  0      
M  END
$$$$
conservative_sidechains.sdf
  ChemDraw01222020072D

  9 10  0  0  0  0  0  0  0  0999 V2000
   -0.8501    0.9853    0.0000 C   0  0  0  0  0  0  0  0  0  0  0  0
   -1.2626    0.2708    0.0000 C   0  0  0  0  0  0  0  0  0  0  0  0
   -0.7106   -0.3423    0.0000 C   0  0  0  0  0  0  0  0  0  0  0  0
    0.0431   -0.0068    0.0000 C   0  0  0  0  0  0  0  0  0  0  0  0
   -0.0431    0.8137    0.0000 N   0  0  0  0  0  0  0  0  0  0  0  0
    0.8501   -0.1783    0.0000 N   0  0  0  0  0  0  0  0  0  0  0  0
    1.2626    0.5362    0.0000 C   0  0  0  0  0  0  0  0  0  0  0  0
    0.7106    1.1493    0.0000 C   0  0  0  0  0  0  0  0  0  0  0  0
   -0.8821   -1.1493    0.0000 C   0  0  0  0  0  0  0  0  0  0  0  0
  1  2  2  0      
  2  3  1  0      
  3  4  2  0      
  4  5  1  0      
  5  1  1  0      
  6  7  1  0      
  7  8  2  0      
  8  5  1  0      
  4  6  1  0      
  3  9  1  0      
M  END
$$$$
conservative_sidechains.sdf
  ChemDraw01222020072D

  8  8  0  0  0  0  0  0  0  0999 V2000
   -1.0717    0.8250    0.0000 C   0  0  0  0  0  0  0  0  0  0  0  0
   -1.0717    0.0000    0.0000 S   0  0  0  0  0  0  0  0  0  0  0  0
   -0.3572   -0.4125    0.0000 C   0  0  0  0  0  0  0  0  0  0  0  0
    0.3572    0.0000    0.0000 C   0  0  0  0  0  0  0  0  0  0  0  0
    0.3572    0.8250    0.0000 C   0  0  0  0  0  0  0  0  0  0  0  0
   -0.3572    1.2375    0.0000 C   0  0  0  0  0  0  0  0  0  0  0  0
    1.0717    1.2375    0.0000 O   0  0  0  0  0  0  0  0  0  0  0  0
   -0.3572   -1.2375    0.0000 C   0  0  0  0  0  0  0  0  0  0  0  0
  1  2  1  0      
  2  3  1  0      
  3  4  2  0      
  4  5  1  0      
  5  6  1  0      
  6  1  2  0      
  5  7  2  0      
  3  8  1  0      
M  END
$$$$
conservative_sidechains.sdf
  ChemDraw01222020072D

  9 10  0  0  0  0  0  0  0  0999 V2000
   -0.8523    0.1327    0.0000 C   0  0  0  0  0  0  0  0  0  0  0  0
   -0.4398   -0.5818    0.0000 C   0  0  0  0  0  0  0  0  0  0  0  0
    0.3671   -0.4102    0.0000 C   0  0  0  0  0  0  0  0  0  0  0  0
    0.4534    0.4102    0.0000 C   0  0  0  0  0  0  0  0  0  0  0  0
   -0.3003    0.7458    0.0000 S   0  0  0  0  0  0  0  0  0  0  0  0
    1.1208   -0.7458    0.0000 C   0  0  0  0  0  0  0  0  0  0  0  0
    1.6728   -0.1327    0.0000 C   0  0  0  0  0  0  0  0  0  0  0  0
    1.2603    0.5818    0.0000 O   0  0  0  0  0  0  0  0  0  0  0  0
   -1.6728    0.2189    0.0000 C   0  0  0  0  0  0  0  0  0  0  0  0
  1  2  2  0      
  2  3  1  0      
  3  4  2  0      
  4  5  1  0      
  5  1  1  0      
  3  6  1  0      
  6  7  2  0      
  7  8  1  0      
  8  4  1  0      
  1  9  1  0      
M  END
$$$$
conservative_sidechains.sdf
  ChemDraw01222020072D

  9 10  0  0  0  0  0  0  0  0999 V2000
   -0.8501    0.1783    0.0000 C   0  0  0  0  0  0  0  0  0  0  0  0
   -1.2626   -0.5362    0.0000 C   0  0  0  0  0  0  0  0  0  0  0  0
   -0.7106   -1.1493    0.0000 C   0  0  0  0  0  0  0  0  0  0  0  0
    0.0431   -0.8137    0.0000 C   0  0  0  0  0  0  0  0  0  0  0  0
   -0.0431    0.0068    0.0000 N   0  0  0  0  0  0  0  0  0  0  0  0
    0.8501   -0.9853    0.0000 N   0  0  0  0  0  0  0  0  0  0  0  0
    1.2626   -0.2708    0.0000 C   0  0  0  0  0  0  0  0  0  0  0  0
    0.7106    0.3423    0.0000 C   0  0  0  0  0  0  0  0  0  0  0  0
    0.8821    1.1493    0.0000 C   0  0  0  0  0  0  0  0  0  0  0  0
  1  2  2  0      
  2  3  1  0      
  3  4  2  0      
  4  5  1  0      
  5  1  1  0      
  6  7  1  0      
  7  8  2  0      
  8  5  1  0      
  4  6  1  0      
  8  9  1  0      
M  END
$$$$
conservative_sidechains.sdf
  ChemDraw01222020072D

  9 10  0  0  0  0  0  0  0  0999 V2000
   -1.6728    0.1327    0.0000 C   0  0  0  0  0  0  0  0  0  0  0  0
   -1.2603   -0.5818    0.0000 C   0  0  0  0  0  0  0  0  0  0  0  0
   -0.4534   -0.4102    0.0000 C   0  0  0  0  0  0  0  0  0  0  0  0
   -0.3671    0.4102    0.0000 C   0  0  0  0  0  0  0  0  0  0  0  0
   -1.1208    0.7458    0.0000 S   0  0  0  0  0  0  0  0  0  0  0  0
    0.3003   -0.7458    0.0000 C   0  0  0  0  0  0  0  0  0  0  0  0
    0.8523   -0.1327    0.0000 C   0  0  0  0  0  0  0  0  0  0  0  0
    0.4398    0.5818    0.0000 O   0  0  0  0  0  0  0  0  0  0  0  0
    1.6728   -0.2189    0.0000 C   0  0  0  0  0  0  0  0  0  0  0  0
  1  2  2  0      
  2  3  1  0      
  3  4  2  0      
  4  5  1  0      
  5  1  1  0      
  3  6  1  0      
  6  7  2  0      
  7  8  1  0      
  8  4  1  0      
  7  9  1  0      
M  END
$$$$
conservative_sidechains.sdf
  ChemDraw01222020072D

 12 13  0  0  0  0  0  0  0  0999 V2000
   -1.7861    0.4125    0.0000 C   0  0  0  0  0  0  0  0  0  0  0  0
   -1.7861   -0.4125    0.0000 C   0  0  0  0  0  0  0  0  0  0  0  0
   -1.0717   -0.8250    0.0000 C   0  0  0  0  0  0  0  0  0  0  0  0
   -0.3572   -0.4125    0.0000 C   0  0  0  0  0  0  0  0  0  0  0  0
   -0.3572    0.4125    0.0000 C   0  0  0  0  0  0  0  0  0  0  0  0
   -1.0717    0.8250    0.0000 C   0  0  0  0  0  0  0  0  0  0  0  0
    0.3572   -0.8250    0.0000 C   0  0  0  0  0  0  0  0  0  0  0  0
    1.0717   -0.4125    0.0000 C   0  0  0  0  0  0  0  0  0  0  0  0
    1.0717    0.4125    0.0000 C   0  0  0  0  0  0  0  0  0  0  0  0
    0.3572    0.8250    0.0000 S   0  0  0  0  0  0  0  0  0  0  0  0
    1.7861    0.8250    0.0000 O   0  0  0  0  0  0  0  0  0  0  0  0
    1.7861   -0.8250    0.0000 C   0  0  0  0  0  0  0  0  0  0  0  0
  1  2  2  0      
  2  3  1  0      
  3  4  2  0      
  4  5  1  0      
  5  6  2  0      
  6  1  1  0      
  4  7  1  0      
  7  8  2  0      
  8  9  1  0      
  9 10  1  0      
 10  5  1  0      
  9 11  2  0      
  8 12  1  0      
M  END
$$$$
conservative_sidechains.sdf
  ChemDraw01222020072D

  9 10  0  0  0  0  0  0  0  0999 V2000
   -1.2684    0.4073    0.0000 S   0  0  0  0  0  0  0  0  0  0  0  0
   -0.8126   -0.2803    0.0000 C   0  0  0  0  0  0  0  0  0  0  0  0
   -0.0177   -0.0593    0.0000 C   0  0  0  0  0  0  0  0  0  0  0  0
    0.0177    0.7649    0.0000 C   0  0  0  0  0  0  0  0  0  0  0  0
   -0.7552    1.0533    0.0000 C   0  0  0  0  0  0  0  0  0  0  0  0
    0.7552   -0.3477    0.0000 C   0  0  0  0  0  0  0  0  0  0  0  0
    1.2684    0.2983    0.0000 C   0  0  0  0  0  0  0  0  0  0  0  0
    0.8126    0.9859    0.0000 O   0  0  0  0  0  0  0  0  0  0  0  0
   -1.1009   -1.0533    0.0000 C   0  0  0  0  0  0  0  0  0  0  0  0
  1  2  1  0      
  2  3  2  0      
  3  4  1  0      
  4  5  2  0      
  5  1  1  0      
  3  6  1  0      
  6  7  2  0      
  7  8  1  0      
  8  4  1  0      
  2  9  1  0      
M  END
$$$$
conservative_sidechains.sdf
  ChemDraw01222020072D

  9 10  0  0  0  0  0  0  0  0999 V2000
   -1.2683    0.4519    0.0000 S   0  0  0  0  0  0  0  0  0  0  0  0
   -0.8126   -0.2357    0.0000 C   0  0  0  0  0  0  0  0  0  0  0  0
   -0.0177   -0.0147    0.0000 C   0  0  0  0  0  0  0  0  0  0  0  0
    0.0177    0.8095    0.0000 C   0  0  0  0  0  0  0  0  0  0  0  0
   -0.7552    1.0979    0.0000 C   0  0  0  0  0  0  0  0  0  0  0  0
    0.7552   -0.3031    0.0000 C   0  0  0  0  0  0  0  0  0  0  0  0
    1.2683    0.3429    0.0000 C   0  0  0  0  0  0  0  0  0  0  0  0
    0.8126    1.0306    0.0000 O   0  0  0  0  0  0  0  0  0  0  0  0
    0.9763   -1.0979    0.0000 C   0  0  0  0  0  0  0  0  0  0  0  0
  1  2  1  0      
  2  3  2  0      
  3  4  1  0      
  4  5  2  0      
  5  1  1  0      
  3  6  1  0      
  6  7  2  0      
  7  8  1  0      
  8  4  1  0      
  6  9  1  0      
M  END
$$$$
conservative_sidechains.sdf
  ChemDraw01222020072D

  9 10  0  0  0  0  0  0  0  0999 V2000
   -0.8501    0.9853    0.0000 C   0  0  0  0  0  0  0  0  0  0  0  0
   -1.2626    0.2708    0.0000 C   0  0  0  0  0  0  0  0  0  0  0  0
   -0.7106   -0.3423    0.0000 C   0  0  0  0  0  0  0  0  0  0  0  0
    0.0431   -0.0068    0.0000 C   0  0  0  0  0  0  0  0  0  0  0  0
   -0.0431    0.8137    0.0000 N   0  0  0  0  0  0  0  0  0  0  0  0
    0.8501   -0.1783    0.0000 S   0  0  0  0  0  0  0  0  0  0  0  0
    1.2626    0.5362    0.0000 C   0  0  0  0  0  0  0  0  0  0  0  0
    0.7106    1.1493    0.0000 C   0  0  0  0  0  0  0  0  0  0  0  0
   -0.8821   -1.1493    0.0000 C   0  0  0  0  0  0  0  0  0  0  0  0
  1  2  2  0      
  2  3  1  0      
  3  4  2  0      
  4  5  1  0      
  5  1  1  0      
  4  6  1  0      
  6  7  1  0      
  7  8  2  0      
  8  5  1  0      
  3  9  1  0      
M  END
$$$$
conservative_sidechains.sdf
  ChemDraw01222020072D

  9 10  0  0  0  0  0  0  0  0999 V2000
   -0.8501    0.1783    0.0000 C   0  0  0  0  0  0  0  0  0  0  0  0
   -1.2626   -0.5362    0.0000 C   0  0  0  0  0  0  0  0  0  0  0  0
   -0.7106   -1.1493    0.0000 C   0  0  0  0  0  0  0  0  0  0  0  0
    0.0431   -0.8137    0.0000 C   0  0  0  0  0  0  0  0  0  0  0  0
   -0.0431    0.0068    0.0000 N   0  0  0  0  0  0  0  0  0  0  0  0
    0.8501   -0.9853    0.0000 S   0  0  0  0  0  0  0  0  0  0  0  0
    1.2626   -0.2708    0.0000 C   0  0  0  0  0  0  0  0  0  0  0  0
    0.7106    0.3423    0.0000 C   0  0  0  0  0  0  0  0  0  0  0  0
    0.8821    1.1493    0.0000 C   0  0  0  0  0  0  0  0  0  0  0  0
  1  2  2  0      
  2  3  1  0      
  3  4  2  0      
  4  5  1  0      
  5  1  1  0      
  4  6  1  0      
  6  7  1  0      
  7  8  2  0      
  8  5  1  0      
  8  9  1  0      
M  END
$$$$
conservative_sidechains.sdf
  ChemDraw01222020072D

 10 11  0  0  0  0  0  0  0  0999 V2000
    0.0797   -0.0990    0.0000 C   0  0  0  0  0  0  0  0  0  0  0  0
    0.0797    0.7260    0.0000 C   0  0  0  0  0  0  0  0  0  0  0  0
    0.8643   -0.3539    0.0000 C   0  0  0  0  0  0  0  0  0  0  0  0
    1.3492    0.3135    0.0000 S   0  0  0  0  0  0  0  0  0  0  0  0
    0.8643    0.9810    0.0000 C   0  0  0  0  0  0  0  0  0  0  0  0
   -0.6348    1.1385    0.0000 C   0  0  0  0  0  0  0  0  0  0  0  0
   -1.3492    0.7260    0.0000 C   0  0  0  0  0  0  0  0  0  0  0  0
   -1.3492   -0.0990    0.0000 C   0  0  0  0  0  0  0  0  0  0  0  0
   -0.6348   -0.5115    0.0000 C   0  0  0  0  0  0  0  0  0  0  0  0
    1.1193   -1.1385    0.0000 C   0  0  0  0  0  0  0  0  0  0  0  0
  1  2  1  0      
  1  3  2  0      
  3  4  1  0      
  4  5  1  0      
  5  2  2  0      
  2  6  1  0      
  6  7  2  0      
  7  8  1  0      
  8  9  2  0      
  9  1  1  0      
  3 10  1  0      
M  END
$$$$
conservative_sidechains.sdf
  ChemDraw01222020072D

  9 10  0  0  0  0  0  0  0  0999 V2000
   -1.2539    0.0462    0.0000 C   0  0  0  0  0  0  0  0  0  0  0  0
   -0.6706   -0.5372    0.0000 C   0  0  0  0  0  0  0  0  0  0  0  0
    0.0645   -0.1626    0.0000 C   0  0  0  0  0  0  0  0  0  0  0  0
   -0.0645    0.6522    0.0000 C   0  0  0  0  0  0  0  0  0  0  0  0
   -0.8794    0.7813    0.0000 S   0  0  0  0  0  0  0  0  0  0  0  0
    0.8794   -0.2917    0.0000 C   0  0  0  0  0  0  0  0  0  0  0  0
    1.2539    0.4434    0.0000 S   0  0  0  0  0  0  0  0  0  0  0  0
    0.6706    1.0268    0.0000 N   0  0  0  0  0  0  0  0  0  0  0  0
    1.2539   -1.0268    0.0000 C   0  0  0  0  0  0  0  0  0  0  0  0
  1  2  2  0      
  2  3  1  0      
  3  4  1  0      
  4  5  1  0      
  5  1  1  0      
  3  6  2  0      
  6  7  1  0      
  7  8  1  0      
  8  4  2  0      
  6  9  1  0      
M  END
$$$$
conservative_sidechains.sdf
  ChemDraw01222020072D

  9 10  0  0  0  0  0  0  0  0999 V2000
   -1.2684    0.4073    0.0000 S   0  0  0  0  0  0  0  0  0  0  0  0
   -0.8126   -0.2803    0.0000 C   0  0  0  0  0  0  0  0  0  0  0  0
   -0.0177   -0.0593    0.0000 C   0  0  0  0  0  0  0  0  0  0  0  0
    0.0177    0.7649    0.0000 C   0  0  0  0  0  0  0  0  0  0  0  0
   -0.7552    1.0533    0.0000 C   0  0  0  0  0  0  0  0  0  0  0  0
    0.7552   -0.3477    0.0000 C   0  0  0  0  0  0  0  0  0  0  0  0
    1.2684    0.2983    0.0000 C   0  0  0  0  0  0  0  0  0  0  0  0
    0.8126    0.9859    0.0000 S   0  0  0  0  0  0  0  0  0  0  0  0
   -1.1009   -1.0533    0.0000 C   0  0  0  0  0  0  0  0  0  0  0  0
  1  2  1  0      
  2  3  2  0      
  3  4  1  0      
  4  5  2  0      
  5  1  1  0      
  3  6  1  0      
  6  7  2  0      
  7  8  1  0      
  8  4  1  0      
  2  9  1  0      
M  END
$$$$
conservative_sidechains.sdf
  ChemDraw01222020072D

  9 10  0  0  0  0  0  0  0  0999 V2000
   -1.2683    0.4519    0.0000 S   0  0  0  0  0  0  0  0  0  0  0  0
   -0.8126   -0.2357    0.0000 C   0  0  0  0  0  0  0  0  0  0  0  0
   -0.0177   -0.0147    0.0000 C   0  0  0  0  0  0  0  0  0  0  0  0
    0.0177    0.8095    0.0000 C   0  0  0  0  0  0  0  0  0  0  0  0
   -0.7552    1.0979    0.0000 C   0  0  0  0  0  0  0  0  0  0  0  0
    0.7552   -0.3031    0.0000 C   0  0  0  0  0  0  0  0  0  0  0  0
    1.2683    0.3429    0.0000 C   0  0  0  0  0  0  0  0  0  0  0  0
    0.8126    1.0306    0.0000 S   0  0  0  0  0  0  0  0  0  0  0  0
    0.9763   -1.0979    0.0000 C   0  0  0  0  0  0  0  0  0  0  0  0
  1  2  1  0      
  2  3  2  0      
  3  4  1  0      
  4  5  2  0      
  5  1  1  0      
  3  6  1  0      
  6  7  2  0      
  7  8  1  0      
  8  4  1  0      
  6  9  1  0      
M  END
$$$$
conservative_sidechains.sdf
  ChemDraw01222020072D

  9 10  0  0  0  0  0  0  0  0999 V2000
   -1.2539    0.2088    0.0000 C   0  0  0  0  0  0  0  0  0  0  0  0
   -0.6706   -0.3745    0.0000 C   0  0  0  0  0  0  0  0  0  0  0  0
    0.0645   -0.0000    0.0000 C   0  0  0  0  0  0  0  0  0  0  0  0
   -0.0645    0.8148    0.0000 C   0  0  0  0  0  0  0  0  0  0  0  0
   -0.8794    0.9439    0.0000 S   0  0  0  0  0  0  0  0  0  0  0  0
    0.8794   -0.1291    0.0000 C   0  0  0  0  0  0  0  0  0  0  0  0
    1.2539    0.6060    0.0000 S   0  0  0  0  0  0  0  0  0  0  0  0
    0.6706    1.1894    0.0000 N   0  0  0  0  0  0  0  0  0  0  0  0
   -0.7996   -1.1894    0.0000 C   0  0  0  0  0  0  0  0  0  0  0  0
  1  2  2  0      
  2  3  1  0      
  3  4  1  0      
  4  5  1  0      
  5  1  1  0      
  3  6  2  0      
  6  7  1  0      
  7  8  1  0      
  8  4  2  0      
  2  9  1  0      
M  END
$$$$
conservative_sidechains.sdf
  ChemDraw01222020072D

 10 11  0  0  0  0  0  0  0  0999 V2000
   -1.3493    0.8250    0.0000 C   0  0  0  0  0  0  0  0  0  0  0  0
   -1.3493    0.0000    0.0000 C   0  0  0  0  0  0  0  0  0  0  0  0
   -0.6348   -0.4125    0.0000 C   0  0  0  0  0  0  0  0  0  0  0  0
    0.0797    0.0000    0.0000 C   0  0  0  0  0  0  0  0  0  0  0  0
    0.0797    0.8250    0.0000 C   0  0  0  0  0  0  0  0  0  0  0  0
   -0.6348    1.2375    0.0000 C   0  0  0  0  0  0  0  0  0  0  0  0
    0.8643   -0.2549    0.0000 C   0  0  0  0  0  0  0  0  0  0  0  0
    1.3493    0.4125    0.0000 O   0  0  0  0  0  0  0  0  0  0  0  0
    0.8643    1.0799    0.0000 C   0  0  0  0  0  0  0  0  0  0  0  0
   -0.6348   -1.2375    0.0000 C   0  0  0  0  0  0  0  0  0  0  0  0
  1  2  1  0      
  2  3  2  0      
  3  4  1  0      
  4  5  1  0      
  5  6  1  0      
  6  1  2  0      
  4  7  2  0      
  7  8  1  0      
  8  9  1  0      
  9  5  2  0      
  3 10  1  0      
M  END
$$$$
conservative_sidechains.sdf
  ChemDraw01222020072D

 10 11  0  0  0  0  0  0  0  0999 V2000
   -1.3492    0.7260    0.0000 C   0  0  0  0  0  0  0  0  0  0  0  0
   -1.3492   -0.0990    0.0000 C   0  0  0  0  0  0  0  0  0  0  0  0
   -0.6348   -0.5115    0.0000 C   0  0  0  0  0  0  0  0  0  0  0  0
    0.0797   -0.0990    0.0000 C   0  0  0  0  0  0  0  0  0  0  0  0
    0.0797    0.7260    0.0000 C   0  0  0  0  0  0  0  0  0  0  0  0
   -0.6348    1.1385    0.0000 C   0  0  0  0  0  0  0  0  0  0  0  0
    0.8643   -0.3539    0.0000 C   0  0  0  0  0  0  0  0  0  0  0  0
    1.3492    0.3135    0.0000 O   0  0  0  0  0  0  0  0  0  0  0  0
    0.8643    0.9810    0.0000 C   0  0  0  0  0  0  0  0  0  0  0  0
    1.1193   -1.1385    0.0000 C   0  0  0  0  0  0  0  0  0  0  0  0
  1  2  1  0      
  2  3  2  0      
  3  4  1  0      
  4  5  1  0      
  5  6  1  0      
  6  1  2  0      
  4  7  2  0      
  7  8  1  0      
  8  9  1  0      
  9  5  2  0      
  7 10  1  0      
M  END
$$$$
conservative_sidechains.sdf
  ChemDraw01222020072D

 11 12  0  0  0  0  0  0  0  0999 V2000
   -1.3492    0.3135    0.0000 N   0  0  0  0  0  0  0  0  0  0  0  0
   -1.3492   -0.5115    0.0000 C   0  0  0  0  0  0  0  0  0  0  0  0
   -0.6348   -0.9240    0.0000 C   0  0  0  0  0  0  0  0  0  0  0  0
    0.0797   -0.5115    0.0000 N   0  0  0  0  0  0  0  0  0  0  0  0
    0.0797    0.3135    0.0000 C   0  0  0  0  0  0  0  0  0  0  0  0
   -0.6348    0.7260    0.0000 C   0  0  0  0  0  0  0  0  0  0  0  0
    0.8643   -0.7664    0.0000 C   0  0  0  0  0  0  0  0  0  0  0  0
    1.3492   -0.0990    0.0000 C   0  0  0  0  0  0  0  0  0  0  0  0
    0.8643    0.5685    0.0000 C   0  0  0  0  0  0  0  0  0  0  0  0
   -0.6348    1.5510    0.0000 O   0  0  0  0  0  0  0  0  0  0  0  0
    1.1193   -1.5510    0.0000 C   0  0  0  0  0  0  0  0  0  0  0  0
  1  2  1  0      
  2  3  2  0      
  3  4  1  0      
  4  5  1  0      
  5  6  1  0      
  6  1  1  0      
  4  7  1  0      
  7  8  2  0      
  8  9  1  0      
  9  5  2  0      
  6 10  2  0      
  7 11  1  0      
M  END
$$$$
conservative_sidechains.sdf
  ChemDraw01222020072D

 11 12  0  0  0  0  0  0  0  0999 V2000
   -1.3492    0.4125    0.0000 C   0  0  0  0  0  0  0  0  0  0  0  0
   -1.3492   -0.4125    0.0000 C   0  0  0  0  0  0  0  0  0  0  0  0
   -0.6348   -0.8250    0.0000 C   0  0  0  0  0  0  0  0  0  0  0  0
    0.0797   -0.4125    0.0000 N   0  0  0  0  0  0  0  0  0  0  0  0
    0.0797    0.4125    0.0000 C   0  0  0  0  0  0  0  0  0  0  0  0
   -0.6348    0.8250    0.0000 C   0  0  0  0  0  0  0  0  0  0  0  0
    0.8643   -0.6674    0.0000 C   0  0  0  0  0  0  0  0  0  0  0  0
    1.3492    0.0000    0.0000 C   0  0  0  0  0  0  0  0  0  0  0  0
    0.8643    0.6674    0.0000 S   0  0  0  0  0  0  0  0  0  0  0  0
   -0.6348   -1.6500    0.0000 O   0  0  0  0  0  0  0  0  0  0  0  0
   -0.6348    1.6500    0.0000 C   0  0  0  0  0  0  0  0  0  0  0  0
  1  2  2  0      
  2  3  1  0      
  3  4  1  0      
  4  5  1  0      
  5  6  2  0      
  6  1  1  0      
  4  7  1  0      
  7  8  2  0      
  8  9  1  0      
  9  5  1  0      
  3 10  2  0      
  6 11  1  0      
M  END
$$$$
conservative_sidechains.sdf
  ChemDraw01222020072D

 11 12  0  0  0  0  0  0  0  0999 V2000
   -1.3492    0.4125    0.0000 N   0  0  0  0  0  0  0  0  0  0  0  0
   -1.3492   -0.4125    0.0000 C   0  0  0  0  0  0  0  0  0  0  0  0
   -0.6348   -0.8250    0.0000 C   0  0  0  0  0  0  0  0  0  0  0  0
    0.0797   -0.4125    0.0000 N   0  0  0  0  0  0  0  0  0  0  0  0
    0.0797    0.4125    0.0000 C   0  0  0  0  0  0  0  0  0  0  0  0
   -0.6348    0.8250    0.0000 C   0  0  0  0  0  0  0  0  0  0  0  0
    0.8643   -0.6674    0.0000 C   0  0  0  0  0  0  0  0  0  0  0  0
    1.3492    0.0000    0.0000 C   0  0  0  0  0  0  0  0  0  0  0  0
    0.8643    0.6674    0.0000 C   0  0  0  0  0  0  0  0  0  0  0  0
   -0.6348    1.6500    0.0000 O   0  0  0  0  0  0  0  0  0  0  0  0
   -0.6348   -1.6500    0.0000 C   0  0  0  0  0  0  0  0  0  0  0  0
  1  2  1  0      
  2  3  2  0      
  3  4  1  0      
  4  5  1  0      
  5  6  1  0      
  6  1  1  0      
  4  7  1  0      
  7  8  2  0      
  8  9  1  0      
  9  5  2  0      
  6 10  2  0      
  3 11  1  0      
M  END
$$$$
conservative_sidechains.sdf
  ChemDraw01222020072D

 11 12  0  0  0  0  0  0  0  0999 V2000
   -0.3484    1.0920    0.0000 C   0  0  0  0  0  0  0  0  0  0  0  0
   -0.3484    0.2670    0.0000 C   0  0  0  0  0  0  0  0  0  0  0  0
    0.4362    0.0121    0.0000 N   0  0  0  0  0  0  0  0  0  0  0  0
    0.9211    0.6795    0.0000 C   0  0  0  0  0  0  0  0  0  0  0  0
    0.4362    1.3469    0.0000 C   0  0  0  0  0  0  0  0  0  0  0  0
   -0.9615   -0.2850    0.0000 C   0  0  0  0  0  0  0  0  0  0  0  0
   -0.7900   -1.0920    0.0000 O   0  0  0  0  0  0  0  0  0  0  0  0
   -0.0054   -1.3469    0.0000 C   0  0  0  0  0  0  0  0  0  0  0  0
    0.6077   -0.7949    0.0000 C   0  0  0  0  0  0  0  0  0  0  0  0
    1.7461    0.6795    0.0000 O   0  0  0  0  0  0  0  0  0  0  0  0
   -1.7461   -0.0301    0.0000 C   0  0  0  0  0  0  0  0  0  0  0  0
  1  2  1  0      
  2  3  1  0      
  3  4  1  0      
  4  5  1  0      
  5  1  2  0      
  2  6  2  0      
  6  7  1  0      
  7  8  1  0      
  8  9  2  0      
  9  3  1  0      
  4 10  2  0      
  6 11  1  0      
M  END
$$$$
conservative_sidechains.sdf
  ChemDraw01222020072D

 11 12  0  0  0  0  0  0  0  0999 V2000
    0.0641    1.4955    0.0000 C   0  0  0  0  0  0  0  0  0  0  0  0
    0.0641    0.6705    0.0000 N   0  0  0  0  0  0  0  0  0  0  0  0
    0.8487    0.4155    0.0000 C   0  0  0  0  0  0  0  0  0  0  0  0
    1.3336    1.0830    0.0000 C   0  0  0  0  0  0  0  0  0  0  0  0
    0.8487    1.7504    0.0000 C   0  0  0  0  0  0  0  0  0  0  0  0
   -0.5490    0.1185    0.0000 C   0  0  0  0  0  0  0  0  0  0  0  0
   -0.3775   -0.6885    0.0000 C   0  0  0  0  0  0  0  0  0  0  0  0
    0.4071   -0.9435    0.0000 C   0  0  0  0  0  0  0  0  0  0  0  0
    1.0202   -0.3914    0.0000 O   0  0  0  0  0  0  0  0  0  0  0  0
   -1.3336    0.3734    0.0000 O   0  0  0  0  0  0  0  0  0  0  0  0
    0.5787   -1.7504    0.0000 C   0  0  0  0  0  0  0  0  0  0  0  0
  1  2  1  0      
  2  3  1  0      
  3  4  2  0      
  4  5  1  0      
  5  1  2  0      
  2  6  1  0      
  6  7  1  0      
  7  8  2  0      
  8  9  1  0      
  9  3  1  0      
  6 10  2  0      
  8 11  1  0      
M  END
$$$$
conservative_sidechains.sdf
  ChemDraw01222020072D

 15 17  0  0  0  0  0  0  0  0999 V2000
   -2.1434    0.0000    0.0000 C   0  0  0  0  0  0  0  0  0  0  0  0
   -2.1434   -0.8250    0.0000 C   0  0  0  0  0  0  0  0  0  0  0  0
   -1.4289   -1.2375    0.0000 C   0  0  0  0  0  0  0  0  0  0  0  0
   -0.7145   -0.8250    0.0000 C   0  0  0  0  0  0  0  0  0  0  0  0
   -0.7145    0.0000    0.0000 C   0  0  0  0  0  0  0  0  0  0  0  0
   -1.4289    0.4125    0.0000 C   0  0  0  0  0  0  0  0  0  0  0  0
    0.0000   -1.2375    0.0000 S   0  0  0  0  0  0  0  0  0  0  0  0
    0.7145   -0.8250    0.0000 C   0  0  0  0  0  0  0  0  0  0  0  0
    0.7145    0.0000    0.0000 C   0  0  0  0  0  0  0  0  0  0  0  0
    0.0000    0.4125    0.0000 N   0  0  0  0  0  0  0  0  0  0  0  0
    1.4289   -1.2375    0.0000 C   0  0  0  0  0  0  0  0  0  0  0  0
    2.1434   -0.8250    0.0000 C   0  0  0  0  0  0  0  0  0  0  0  0
    2.1434    0.0000    0.0000 C   0  0  0  0  0  0  0  0  0  0  0  0
    1.4289    0.4125    0.0000 C   0  0  0  0  0  0  0  0  0  0  0  0
    0.0000    1.2375    0.0000 C   0  0  0  0  0  0  0  0  0  0  0  0
  1  2  2  0      
  2  3  1  0      
  3  4  2  0      
  4  5  1  0      
  5  6  2  0      
  6  1  1  0      
  4  7  1  0      
  7  8  1  0      
  8  9  2  0      
  9 10  1  0      
 10  5  1  0      
  8 11  1  0      
 11 12  2  0      
 12 13  1  0      
 13 14  2  0      
 14  9  1  0      
 10 15  1  0      
M  END
$$$$
conservative_sidechains.sdf
  ChemDraw01222020072D

 10 11  0  0  0  0  0  0  0  0999 V2000
   -1.3492    0.0990    0.0000 C   0  0  0  0  0  0  0  0  0  0  0  0
   -1.3492   -0.7260    0.0000 C   0  0  0  0  0  0  0  0  0  0  0  0
   -0.6348   -1.1385    0.0000 C   0  0  0  0  0  0  0  0  0  0  0  0
    0.0797   -0.7260    0.0000 N   0  0  0  0  0  0  0  0  0  0  0  0
    0.0797    0.0990    0.0000 C   0  0  0  0  0  0  0  0  0  0  0  0
   -0.6348    0.5115    0.0000 C   0  0  0  0  0  0  0  0  0  0  0  0
    0.8643   -0.9810    0.0000 C   0  0  0  0  0  0  0  0  0  0  0  0
    1.3492   -0.3135    0.0000 C   0  0  0  0  0  0  0  0  0  0  0  0
    0.8643    0.3539    0.0000 C   0  0  0  0  0  0  0  0  0  0  0  0
    1.1193    1.1385    0.0000 C   0  0  0  0  0  0  0  0  0  0  0  0
  1  2  1  0      
  2  3  2  0      
  3  4  1  0      
  4  5  1  0      
  5  6  1  0      
  6  1  2  0      
  4  7  1  0      
  7  8  2  0      
  8  9  1  0      
  9  5  2  0      
  9 10  1  0      
M  END
$$$$
conservative_sidechains.sdf
  ChemDraw01222020072D

 11 12  0  0  0  0  0  0  0  0999 V2000
   -1.5336    0.4209    0.0000 C   0  0  0  0  0  0  0  0  0  0  0  0
   -1.2357   -0.3485    0.0000 C   0  0  0  0  0  0  0  0  0  0  0  0
   -0.4485   -0.5953    0.0000 C   0  0  0  0  0  0  0  0  0  0  0  0
    0.2353   -0.1338    0.0000 C   0  0  0  0  0  0  0  0  0  0  0  0
    0.3008    0.6886    0.0000 C   0  0  0  0  0  0  0  0  0  0  0  0
   -0.3014    1.2526    0.0000 C   0  0  0  0  0  0  0  0  0  0  0  0
   -1.1177    1.1334    0.0000 C   0  0  0  0  0  0  0  0  0  0  0  0
    0.9972   -0.4502    0.0000 C   0  0  0  0  0  0  0  0  0  0  0  0
    1.5336    0.1766    0.0000 C   0  0  0  0  0  0  0  0  0  0  0  0
    1.1031    0.8805    0.0000 C   0  0  0  0  0  0  0  0  0  0  0  0
    1.1890   -1.2526    0.0000 C   0  0  0  0  0  0  0  0  0  0  0  0
  1  2  1  0      
  2  3  2  0      
  3  4  1  0      
  4  5  1  0      
  5  6  2  0      
  6  7  1  0      
  7  1  2  0      
  4  8  2  0      
  8  9  1  0      
  9 10  2  0      
 10  5  1  0      
  8 11  1  0      
M  END
$$$$
conservative_sidechains.sdf
  ChemDraw01222020072D

 15 17  0  0  0  0  0  0  0  0999 V2000
   -2.1434    0.8250    0.0000 C   0  0  0  0  0  0  0  0  0  0  0  0
   -2.1434    0.0000    0.0000 C   0  0  0  0  0  0  0  0  0  0  0  0
   -1.4289   -0.4125    0.0000 C   0  0  0  0  0  0  0  0  0  0  0  0
   -0.7145    0.0000    0.0000 C   0  0  0  0  0  0  0  0  0  0  0  0
   -0.7145    0.8250    0.0000 C   0  0  0  0  0  0  0  0  0  0  0  0
   -1.4289    1.2375    0.0000 C   0  0  0  0  0  0  0  0  0  0  0  0
    0.0000   -0.4125    0.0000 S   0  0  0  0  0  0  0  0  0  0  0  0
    0.7145    0.0000    0.0000 C   0  0  0  0  0  0  0  0  0  0  0  0
    0.7145    0.8250    0.0000 C   0  0  0  0  0  0  0  0  0  0  0  0
    0.0000    1.2375    0.0000 N   0  0  0  0  0  0  0  0  0  0  0  0
    1.4289   -0.4125    0.0000 C   0  0  0  0  0  0  0  0  0  0  0  0
    2.1434    0.0000    0.0000 C   0  0  0  0  0  0  0  0  0  0  0  0
    2.1434    0.8250    0.0000 C   0  0  0  0  0  0  0  0  0  0  0  0
    1.4289    1.2375    0.0000 C   0  0  0  0  0  0  0  0  0  0  0  0
   -1.4289   -1.2375    0.0000 C   0  0  0  0  0  0  0  0  0  0  0  0
  1  2  2  0      
  2  3  1  0      
  3  4  2  0      
  4  5  1  0      
  5  6  2  0      
  6  1  1  0      
  4  7  1  0      
  7  8  1  0      
  8  9  2  0      
  9 10  1  0      
 10  5  1  0      
  8 11  1  0      
 11 12  2  0      
 12 13  1  0      
 13 14  2  0      
 14  9  1  0      
  3 15  1  0      
M  END
$$$$
conservative_sidechains.sdf
  ChemDraw01222020072D

 10 11  0  0  0  0  0  0  0  0999 V2000
   -1.3493    0.8250    0.0000 C   0  0  0  0  0  0  0  0  0  0  0  0
   -1.3493    0.0000    0.0000 C   0  0  0  0  0  0  0  0  0  0  0  0
   -0.6348   -0.4125    0.0000 C   0  0  0  0  0  0  0  0  0  0  0  0
    0.0797    0.0000    0.0000 N   0  0  0  0  0  0  0  0  0  0  0  0
    0.0797    0.8250    0.0000 C   0  0  0  0  0  0  0  0  0  0  0  0
   -0.6348    1.2375    0.0000 C   0  0  0  0  0  0  0  0  0  0  0  0
    0.8643   -0.2549    0.0000 C   0  0  0  0  0  0  0  0  0  0  0  0
    1.3493    0.4125    0.0000 C   0  0  0  0  0  0  0  0  0  0  0  0
    0.8643    1.0799    0.0000 C   0  0  0  0  0  0  0  0  0  0  0  0
   -0.6348   -1.2375    0.0000 C   0  0  0  0  0  0  0  0  0  0  0  0
  1  2  1  0      
  2  3  2  0      
  3  4  1  0      
  4  5  1  0      
  5  6  1  0      
  6  1  2  0      
  4  7  1  0      
  7  8  2  0      
  8  9  1  0      
  9  5  2  0      
  3 10  1  0      
M  END
$$$$
conservative_sidechains.sdf
  ChemDraw01222020072D

 11 12  0  0  0  0  0  0  0  0999 V2000
    1.5465    0.0760    0.0000 C   0  0  0  0  0  0  0  0  0  0  0  0
    1.0374    0.7252    0.0000 C   0  0  0  0  0  0  0  0  0  0  0  0
    0.2206    0.6088    0.0000 C   0  0  0  0  0  0  0  0  0  0  0  0
   -0.0870   -0.1567    0.0000 C   0  0  0  0  0  0  0  0  0  0  0  0
    0.4222   -0.8058    0.0000 C   0  0  0  0  0  0  0  0  0  0  0  0
    1.2389   -0.6895    0.0000 C   0  0  0  0  0  0  0  0  0  0  0  0
   -0.8617   -0.4403    0.0000 C   0  0  0  0  0  0  0  0  0  0  0  0
   -0.8314   -1.2648    0.0000 C   0  0  0  0  0  0  0  0  0  0  0  0
   -0.0379   -1.4907    0.0000 N   0  0  0  0  0  0  0  0  0  0  0  0
   -1.5465    0.0197    0.0000 C   0  0  0  0  0  0  0  0  0  0  0  0
    1.3450    1.4907    0.0000 Br  0  0  0  0  0  0  0  0  0  0  0  0
  1  2  2  0      
  2  3  1  0      
  3  4  2  0      
  4  5  1  0      
  5  6  2  0      
  6  1  1  0      
  4  7  1  0      
  7  8  2  0      
  8  9  1  0      
  9  5  1  0      
  7 10  1  0      
  2 11  1  0      
M  END
$$$$
conservative_sidechains.sdf
  ChemDraw01222020072D

 11 12  0  0  0  0  0  0  0  0999 V2000
    1.5465    0.0760    0.0000 C   0  0  0  0  0  0  0  0  0  0  0  0
    1.0374    0.7252    0.0000 C   0  0  0  0  0  0  0  0  0  0  0  0
    0.2206    0.6088    0.0000 C   0  0  0  0  0  0  0  0  0  0  0  0
   -0.0870   -0.1567    0.0000 C   0  0  0  0  0  0  0  0  0  0  0  0
    0.4222   -0.8058    0.0000 C   0  0  0  0  0  0  0  0  0  0  0  0
    1.2389   -0.6895    0.0000 C   0  0  0  0  0  0  0  0  0  0  0  0
   -0.8617   -0.4403    0.0000 C   0  0  0  0  0  0  0  0  0  0  0  0
   -0.8314   -1.2648    0.0000 C   0  0  0  0  0  0  0  0  0  0  0  0
   -0.0379   -1.4907    0.0000 N   0  0  0  0  0  0  0  0  0  0  0  0
   -1.5465    0.0197    0.0000 C   0  0  0  0  0  0  0  0  0  0  0  0
    1.3450    1.4907    0.0000 F   0  0  0  0  0  0  0  0  0  0  0  0
  1  2  2  0      
  2  3  1  0      
  3  4  2  0      
  4  5  1  0      
  5  6  2  0      
  6  1  1  0      
  4  7  1  0      
  7  8  2  0      
  8  9  1  0      
  9  5  1  0      
  7 10  1  0      
  2 11  1  0      
M  END
$$$$
conservative_sidechains.sdf
  ChemDraw01222020072D

 11 12  0  0  0  0  0  0  0  0999 V2000
   -1.3492    0.8250    0.0000 C   0  0  0  0  0  0  0  0  0  0  0  0
   -1.3492    0.0000    0.0000 N   0  0  0  0  0  0  0  0  0  0  0  0
   -0.6348   -0.4125    0.0000 C   0  0  0  0  0  0  0  0  0  0  0  0
    0.0797    0.0000    0.0000 C   0  0  0  0  0  0  0  0  0  0  0  0
    0.0797    0.8250    0.0000 C   0  0  0  0  0  0  0  0  0  0  0  0
   -0.6348    1.2375    0.0000 C   0  0  0  0  0  0  0  0  0  0  0  0
    0.8643   -0.2549    0.0000 C   0  0  0  0  0  0  0  0  0  0  0  0
    1.3492    0.4125    0.0000 C   0  0  0  0  0  0  0  0  0  0  0  0
    0.8643    1.0799    0.0000 O   0  0  0  0  0  0  0  0  0  0  0  0
   -0.6348   -1.2375    0.0000 O   0  0  0  0  0  0  0  0  0  0  0  0
    1.1193   -1.0396    0.0000 C   0  0  0  0  0  0  0  0  0  0  0  0
  1  2  1  0      
  2  3  1  0      
  3  4  1  0      
  4  5  2  0      
  5  6  1  0      
  6  1  2  0      
  4  7  1  0      
  7  8  2  0      
  8  9  1  0      
  9  5  1  0      
  3 10  2  0      
  7 11  1  0      
M  END
$$$$
conservative_sidechains.sdf
  ChemDraw01222020072D

 11 12  0  0  0  0  0  0  0  0999 V2000
   -1.3492    0.4125    0.0000 C   0  0  0  0  0  0  0  0  0  0  0  0
   -1.3492   -0.4125    0.0000 N   0  0  0  0  0  0  0  0  0  0  0  0
   -0.6348   -0.8250    0.0000 C   0  0  0  0  0  0  0  0  0  0  0  0
    0.0797   -0.4125    0.0000 C   0  0  0  0  0  0  0  0  0  0  0  0
    0.0797    0.4125    0.0000 C   0  0  0  0  0  0  0  0  0  0  0  0
   -0.6348    0.8250    0.0000 C   0  0  0  0  0  0  0  0  0  0  0  0
    0.8643   -0.6674    0.0000 C   0  0  0  0  0  0  0  0  0  0  0  0
    1.3492    0.0000    0.0000 C   0  0  0  0  0  0  0  0  0  0  0  0
    0.8643    0.6674    0.0000 O   0  0  0  0  0  0  0  0  0  0  0  0
   -0.6348   -1.6500    0.0000 O   0  0  0  0  0  0  0  0  0  0  0  0
   -0.6348    1.6500    0.0000 C   0  0  0  0  0  0  0  0  0  0  0  0
  1  2  1  0      
  2  3  1  0      
  3  4  1  0      
  4  5  2  0      
  5  6  1  0      
  6  1  2  0      
  4  7  1  0      
  7  8  2  0      
  8  9  1  0      
  9  5  1  0      
  3 10  2  0      
  6 11  1  0      
M  END
$$$$
conservative_sidechains.sdf
  ChemDraw01222020072D

  7  7  0  0  0  0  0  0  0  0999 V2000
   -0.3572    0.8250    0.0000 C   0  0  0  0  0  0  0  0  0  0  0  0
   -1.0717    0.4125    0.0000 C   0  0  0  0  0  0  0  0  0  0  0  0
   -1.0717   -0.4125    0.0000 C   0  0  0  0  0  0  0  0  0  0  0  0
   -0.3572   -0.8250    0.0000 C   0  0  0  0  0  0  0  0  0  0  0  0
    0.3572   -0.4125    0.0000 C   0  0  0  0  0  0  0  0  0  0  0  0
    0.3572    0.4125    0.0000 C   0  0  0  0  0  0  0  0  0  0  0  0
    1.0717    0.8250    0.0000 C   0  0  0  0  0  0  0  0  0  0  0  0
  1  2  2  0      
  2  3  1  0      
  3  4  2  0      
  4  5  1  0      
  5  6  2  0      
  6  1  1  0      
  6  7  1  0      
M  END
$$$$
