monomers.sdf
  ChemDraw12111913122D

  6  5  0  0  0  0  0  0  0  0999 V2000
    0.3573    0.2063    0.0000 C   0  0  0  0  0  0  0  0  0  0  0  0
    0.3573    1.0313    0.0000 O   0  0  0  0  0  0  0  0  0  0  0  0
   -0.3573   -1.0313    0.0000 N   0  0  0  0  0  0  0  0  0  0  0  0
   -0.3573   -0.2063    0.0000 C   0  0  0  0  0  0  0  0  0  0  0  0
   -1.0717    0.2063    0.0000 C   0  0  0  0  0  0  0  0  0  0  0  0
    1.0717   -0.2063    0.0000 O   0  0  0  0  0  0  0  0  0  0  0  0
  1  2  2  0      
  4  3  1  0      
  1  4  1  0      
  4  5  1  0      
  6  1  1  0      
M  END
$$$$
monomers.sdf
  ChemDraw12111913122D

 12 11  0  0  0  0  0  0  0  0999 V2000
    2.1436    0.2062    0.0000 C   0  0  0  0  0  0  0  0  0  0  0  0
    2.1436    1.0312    0.0000 O   0  0  0  0  0  0  0  0  0  0  0  0
    1.4291   -1.0312    0.0000 N   0  0  0  0  0  0  0  0  0  0  0  0
    1.4291   -0.2062    0.0000 C   0  0  0  0  0  0  0  0  0  0  0  0
    0.7144    0.2062    0.0000 C   0  0  0  0  0  0  0  0  0  0  0  0
    0.0000   -0.2062    0.0000 C   0  0  0  0  0  0  0  0  0  0  0  0
   -0.7144    0.2062    0.0000 C   0  0  0  0  0  0  0  0  0  0  0  0
   -1.4291   -0.2062    0.0000 N   0  0  0  0  0  0  0  0  0  0  0  0
   -2.1436    0.2062    0.0000 C   0  0  0  0  0  0  0  0  0  0  0  0
   -2.1436    1.0312    0.0000 N   0  0  0  0  0  0  0  0  0  0  0  0
   -2.8581   -0.2062    0.0000 N   0  0  0  0  0  0  0  0  0  0  0  0
    2.8581   -0.2062    0.0000 O   0  0  0  0  0  0  0  0  0  0  0  0
  1  2  2  0      
  4  3  1  0      
  1  4  1  0      
  4  5  1  0      
  5  6  1  0      
  6  7  1  0      
  7  8  1  0      
  8  9  1  0      
  9 10  2  0      
  9 11  1  0      
 12  1  1  0      
M  END
$$$$
monomers.sdf
  ChemDraw12111913122D

  9  8  0  0  0  0  0  0  0  0999 V2000
    1.0716    0.2062    0.0000 C   0  0  0  0  0  0  0  0  0  0  0  0
    1.0716    1.0312    0.0000 O   0  0  0  0  0  0  0  0  0  0  0  0
    0.3573   -1.0312    0.0000 N   0  0  0  0  0  0  0  0  0  0  0  0
    0.3573   -0.2062    0.0000 C   0  0  0  0  0  0  0  0  0  0  0  0
   -0.3573    0.2062    0.0000 C   0  0  0  0  0  0  0  0  0  0  0  0
   -1.0716   -0.2062    0.0000 C   0  0  0  0  0  0  0  0  0  0  0  0
   -1.0716   -1.0312    0.0000 O   0  0  0  0  0  0  0  0  0  0  0  0
   -1.7861    0.2062    0.0000 N   0  0  0  0  0  0  0  0  0  0  0  0
    1.7861   -0.2062    0.0000 O   0  0  0  0  0  0  0  0  0  0  0  0
  1  2  2  0      
  4  3  1  0      
  1  4  1  0      
  4  5  1  0      
  5  6  1  0      
  6  7  2  0      
  6  8  1  0      
  9  1  1  0      
M  END
$$$$
monomers.sdf
  ChemDraw12111913122D

  9  8  0  0  0  0  0  0  0  0999 V2000
    1.0717    0.2062    0.0000 C   0  0  0  0  0  0  0  0  0  0  0  0
    1.0717    1.0312    0.0000 O   0  0  0  0  0  0  0  0  0  0  0  0
    0.3572   -1.0312    0.0000 N   0  0  0  0  0  0  0  0  0  0  0  0
    0.3572   -0.2062    0.0000 C   0  0  0  0  0  0  0  0  0  0  0  0
   -0.3572    0.2062    0.0000 C   0  0  0  0  0  0  0  0  0  0  0  0
   -1.0717   -0.2062    0.0000 C   0  0  0  0  0  0  0  0  0  0  0  0
   -1.0717   -1.0312    0.0000 O   0  0  0  0  0  0  0  0  0  0  0  0
   -1.7863    0.2062    0.0000 O   0  0  0  0  0  0  0  0  0  0  0  0
    1.7863   -0.2062    0.0000 O   0  0  0  0  0  0  0  0  0  0  0  0
  1  2  2  0      
  4  3  1  0      
  1  4  1  0      
  4  5  1  0      
  5  6  1  0      
  6  7  2  0      
  6  8  1  0      
  9  1  1  0      
M  END
$$$$
monomers.sdf
  ChemDraw12111913122D

  7  6  0  0  0  0  0  0  0  0999 V2000
    0.7145    0.2062    0.0000 C   0  0  0  0  0  0  0  0  0  0  0  0
    0.7145    1.0312    0.0000 O   0  0  0  0  0  0  0  0  0  0  0  0
   -0.0000   -1.0312    0.0000 N   0  0  0  0  0  0  0  0  0  0  0  0
   -0.0000   -0.2062    0.0000 C   0  0  0  0  0  0  0  0  0  0  0  0
   -0.7145    0.2062    0.0000 C   0  0  0  0  0  0  0  0  0  0  0  0
   -1.4289   -0.2062    0.0000 S   0  0  0  0  0  0  0  0  0  0  0  0
    1.4289   -0.2062    0.0000 O   0  0  0  0  0  0  0  0  0  0  0  0
  1  2  2  0      
  4  3  1  0      
  1  4  1  0      
  4  5  1  0      
  5  6  1  0      
  7  1  1  0      
M  END
$$$$
monomers.sdf
  ChemDraw12111913122D

 10  9  0  0  0  0  0  0  0  0999 V2000
    1.4289    0.2063    0.0000 C   0  0  0  0  0  0  0  0  0  0  0  0
    1.4289    1.0313    0.0000 O   0  0  0  0  0  0  0  0  0  0  0  0
    0.7145   -1.0313    0.0000 N   0  0  0  0  0  0  0  0  0  0  0  0
    0.7145   -0.2063    0.0000 C   0  0  0  0  0  0  0  0  0  0  0  0
    0.0000    0.2063    0.0000 C   0  0  0  0  0  0  0  0  0  0  0  0
   -0.7145   -0.2063    0.0000 C   0  0  0  0  0  0  0  0  0  0  0  0
   -1.4289    0.2063    0.0000 C   0  0  0  0  0  0  0  0  0  0  0  0
   -1.4289    1.0313    0.0000 O   0  0  0  0  0  0  0  0  0  0  0  0
   -2.1435   -0.2063    0.0000 O   0  0  0  0  0  0  0  0  0  0  0  0
    2.1435   -0.2063    0.0000 O   0  0  0  0  0  0  0  0  0  0  0  0
  1  2  2  0      
  4  3  1  0      
  1  4  1  0      
  4  5  1  0      
  5  6  1  0      
  6  7  1  0      
  7  8  2  0      
  7  9  1  0      
 10  1  1  0      
M  END
$$$$
monomers.sdf
  ChemDraw12111913122D

 10  9  0  0  0  0  0  0  0  0999 V2000
    1.4289    0.2062    0.0000 C   0  0  0  0  0  0  0  0  0  0  0  0
    1.4289    1.0312    0.0000 O   0  0  0  0  0  0  0  0  0  0  0  0
    0.7146   -1.0312    0.0000 N   0  0  0  0  0  0  0  0  0  0  0  0
    0.7146   -0.2062    0.0000 C   0  0  0  0  0  0  0  0  0  0  0  0
    0.0000    0.2062    0.0000 C   0  0  0  0  0  0  0  0  0  0  0  0
   -0.7146   -0.2062    0.0000 C   0  0  0  0  0  0  0  0  0  0  0  0
   -1.4289    0.2062    0.0000 C   0  0  0  0  0  0  0  0  0  0  0  0
   -1.4289    1.0312    0.0000 O   0  0  0  0  0  0  0  0  0  0  0  0
   -2.1435   -0.2062    0.0000 N   0  0  0  0  0  0  0  0  0  0  0  0
    2.1435   -0.2062    0.0000 O   0  0  0  0  0  0  0  0  0  0  0  0
  1  2  2  0      
  4  3  1  0      
  1  4  1  0      
  4  5  1  0      
  5  6  1  0      
  6  7  1  0      
  7  8  2  0      
  7  9  1  0      
 10  1  1  0      
M  END
$$$$
monomers.sdf
  ChemDraw12111913122D

  5  4  0  0  0  0  0  0  0  0999 V2000
    0.3573   -0.2063    0.0000 C   0  0  0  0  0  0  0  0  0  0  0  0
    0.3573    0.6187    0.0000 O   0  0  0  0  0  0  0  0  0  0  0  0
   -1.0718   -0.2063    0.0000 N   0  0  0  0  0  0  0  0  0  0  0  0
   -0.3573   -0.6187    0.0000 C   0  0  0  0  0  0  0  0  0  0  0  0
    1.0718   -0.6187    0.0000 O   0  0  0  0  0  0  0  0  0  0  0  0
  1  2  2  0      
  3  4  1  0      
  1  4  1  0      
  5  1  1  0      
M  END
$$$$
monomers.sdf
  ChemDraw12111913122D

  9  8  0  0  0  0  0  0  0  0999 V2000
    1.0716    0.2063    0.0000 C   0  0  0  0  0  0  0  0  0  0  0  0
    1.0716    1.0311    0.0000 O   0  0  0  0  0  0  0  0  0  0  0  0
    0.3572   -1.0311    0.0000 N   0  0  0  0  0  0  0  0  0  0  0  0
    0.3572   -0.2063    0.0000 C   0  0  0  0  0  0  0  0  0  0  0  0
   -0.3572    0.2063    0.0000 C   0  0  0  0  0  0  0  0  0  0  0  0
   -1.0716   -0.2063    0.0000 C   0  0  0  0  0  0  0  0  0  0  0  0
   -1.7860    0.2063    0.0000 C   0  0  0  0  0  0  0  0  0  0  0  0
   -0.3572    1.0311    0.0000 C   0  0  0  0  0  0  0  0  0  0  0  0
    1.7860   -0.2063    0.0000 O   0  0  0  0  0  0  0  0  0  0  0  0
  1  2  2  0      
  4  3  1  0      
  1  4  1  0      
  4  5  1  0      
  5  6  1  0      
  6  7  1  0      
  5  8  1  0      
  9  1  1  0      
M  END
$$$$
monomers.sdf
  ChemDraw12111913122D

  9  8  0  0  0  0  0  0  0  0999 V2000
    1.0716    0.2062    0.0000 C   0  0  0  0  0  0  0  0  0  0  0  0
    1.0716    1.0312    0.0000 O   0  0  0  0  0  0  0  0  0  0  0  0
    0.3572   -1.0312    0.0000 N   0  0  0  0  0  0  0  0  0  0  0  0
    0.3572   -0.2062    0.0000 C   0  0  0  0  0  0  0  0  0  0  0  0
   -0.3572    0.2062    0.0000 C   0  0  0  0  0  0  0  0  0  0  0  0
   -1.0716   -0.2062    0.0000 C   0  0  0  0  0  0  0  0  0  0  0  0
   -1.0716   -1.0312    0.0000 C   0  0  0  0  0  0  0  0  0  0  0  0
   -1.7862    0.2062    0.0000 C   0  0  0  0  0  0  0  0  0  0  0  0
    1.7862   -0.2062    0.0000 O   0  0  0  0  0  0  0  0  0  0  0  0
  1  2  2  0      
  4  3  1  0      
  1  4  1  0      
  4  5  1  0      
  5  6  1  0      
  6  7  1  0      
  6  8  1  0      
  9  1  1  0      
M  END
$$$$
monomers.sdf
  ChemDraw12111913122D

 10  9  0  0  0  0  0  0  0  0999 V2000
    1.7862    0.2063    0.0000 C   0  0  0  0  0  0  0  0  0  0  0  0
    1.7862    1.0313    0.0000 O   0  0  0  0  0  0  0  0  0  0  0  0
    1.0717   -1.0313    0.0000 N   0  0  0  0  0  0  0  0  0  0  0  0
    1.0717   -0.2063    0.0000 C   0  0  0  0  0  0  0  0  0  0  0  0
    0.3572    0.2063    0.0000 C   0  0  0  0  0  0  0  0  0  0  0  0
   -0.3572   -0.2063    0.0000 C   0  0  0  0  0  0  0  0  0  0  0  0
   -1.0717    0.2063    0.0000 C   0  0  0  0  0  0  0  0  0  0  0  0
   -1.7862   -0.2063    0.0000 C   0  0  0  0  0  0  0  0  0  0  0  0
   -2.5006    0.2063    0.0000 N   0  0  0  0  0  0  0  0  0  0  0  0
    2.5006   -0.2063    0.0000 O   0  0  0  0  0  0  0  0  0  0  0  0
  1  2  2  0      
  4  3  1  0      
  1  4  1  0      
  4  5  1  0      
  5  6  1  0      
  6  7  1  0      
  7  8  1  0      
  8  9  1  0      
 10  1  1  0      
M  END
$$$$
monomers.sdf
  ChemDraw12111913122D

  9  8  0  0  0  0  0  0  0  0999 V2000
    1.4288    0.2063    0.0000 C   0  0  0  0  0  0  0  0  0  0  0  0
    1.4288    1.0312    0.0000 O   0  0  0  0  0  0  0  0  0  0  0  0
    0.7144   -1.0312    0.0000 N   0  0  0  0  0  0  0  0  0  0  0  0
    0.7144   -0.2063    0.0000 C   0  0  0  0  0  0  0  0  0  0  0  0
    0.0000    0.2063    0.0000 C   0  0  0  0  0  0  0  0  0  0  0  0
   -0.7144   -0.2063    0.0000 C   0  0  0  0  0  0  0  0  0  0  0  0
   -1.4288    0.2063    0.0000 S   0  0  0  0  0  0  0  0  0  0  0  0
   -2.1432   -0.2063    0.0000 C   0  0  0  0  0  0  0  0  0  0  0  0
    2.1432   -0.2063    0.0000 O   0  0  0  0  0  0  0  0  0  0  0  0
  1  2  2  0      
  4  3  1  0      
  1  4  1  0      
  4  5  1  0      
  5  6  1  0      
  6  7  1  0      
  7  8  1  0      
  9  1  1  0      
M  END
$$$$
monomers.sdf
  ChemDraw12111913122D

  8  8  0  0  0  0  0  0  0  0999 V2000
    0.6529    0.2897    0.0000 C   0  0  0  0  0  0  0  0  0  0  0  0
    0.6529    1.1147    0.0000 O   0  0  0  0  0  0  0  0  0  0  0  0
   -0.1479   -0.9432    0.0000 N   0  0  0  0  0  0  0  0  0  0  0  0
   -0.0617   -0.1227    0.0000 C   0  0  0  0  0  0  0  0  0  0  0  0
   -0.8152    0.2128    0.0000 C   0  0  0  0  0  0  0  0  0  0  0  0
   -1.3673   -0.4003    0.0000 C   0  0  0  0  0  0  0  0  0  0  0  0
   -0.9549   -1.1147    0.0000 C   0  0  0  0  0  0  0  0  0  0  0  0
    1.3673   -0.1227    0.0000 O   0  0  0  0  0  0  0  0  0  0  0  0
  1  2  2  0      
  3  4  1  0      
  4  1  1  0      
  4  5  1  0      
  5  6  1  0      
  6  7  1  0      
  3  7  1  0      
  8  1  1  0      
M  END
$$$$
monomers.sdf
  ChemDraw12111913122D

  7  6  0  0  0  0  0  0  0  0999 V2000
    0.7145    0.2062    0.0000 C   0  0  0  0  0  0  0  0  0  0  0  0
    0.7145    1.0312    0.0000 O   0  0  0  0  0  0  0  0  0  0  0  0
   -0.0000   -1.0312    0.0000 N   0  0  0  0  0  0  0  0  0  0  0  0
   -0.0000   -0.2062    0.0000 C   0  0  0  0  0  0  0  0  0  0  0  0
   -0.7145    0.2062    0.0000 C   0  0  0  0  0  0  0  0  0  0  0  0
   -1.4290   -0.2062    0.0000 O   0  0  0  0  0  0  0  0  0  0  0  0
    1.4290   -0.2062    0.0000 O   0  0  0  0  0  0  0  0  0  0  0  0
  1  2  2  0      
  4  3  1  0      
  1  4  1  0      
  4  5  1  0      
  5  6  1  0      
  7  1  1  0      
M  END
$$$$
monomers.sdf
  ChemDraw12111913122D

  8  7  0  0  0  0  0  0  0  0999 V2000
    0.7145    0.2063    0.0000 C   0  0  0  0  0  0  0  0  0  0  0  0
    0.7145    1.0313    0.0000 O   0  0  0  0  0  0  0  0  0  0  0  0
   -0.0000   -1.0313    0.0000 N   0  0  0  0  0  0  0  0  0  0  0  0
   -0.0000   -0.2063    0.0000 C   0  0  0  0  0  0  0  0  0  0  0  0
   -0.7145    0.2063    0.0000 C   0  0  0  0  0  0  0  0  0  0  0  0
   -1.4289   -0.2063    0.0000 C   0  0  0  0  0  0  0  0  0  0  0  0
   -0.7145    1.0313    0.0000 O   0  0  0  0  0  0  0  0  0  0  0  0
    1.4289   -0.2063    0.0000 O   0  0  0  0  0  0  0  0  0  0  0  0
  1  2  2  0      
  4  3  1  0      
  1  4  1  0      
  4  5  1  0      
  5  6  1  0      
  5  7  1  0      
  8  1  1  0      
M  END
$$$$
monomers.sdf
  ChemDraw12111913122D

  8  7  0  0  0  0  0  0  0  0999 V2000
    0.7144    0.2063    0.0000 C   0  0  0  0  0  0  0  0  0  0  0  0
    0.7144    1.0313    0.0000 O   0  0  0  0  0  0  0  0  0  0  0  0
   -0.0000   -1.0313    0.0000 N   0  0  0  0  0  0  0  0  0  0  0  0
   -0.0000   -0.2063    0.0000 C   0  0  0  0  0  0  0  0  0  0  0  0
   -0.7144    0.2063    0.0000 C   0  0  0  0  0  0  0  0  0  0  0  0
   -1.4290   -0.2063    0.0000 C   0  0  0  0  0  0  0  0  0  0  0  0
   -0.7144    1.0313    0.0000 C   0  0  0  0  0  0  0  0  0  0  0  0
    1.4290   -0.2063    0.0000 O   0  0  0  0  0  0  0  0  0  0  0  0
  1  2  2  0      
  4  3  1  0      
  1  4  1  0      
  4  5  1  0      
  5  6  1  0      
  5  7  1  0      
  8  1  1  0      
M  END
$$$$
monomers.sdf
  ChemDraw12111913122D

 15 16  0  0  1  0  0  0  0  0999 V2000
   -0.0782   -0.5587    0.0000 C   0  0  0  0  0  0  0  0  0  0  0  0
   -0.9032   -0.5587    0.0000 C   0  0  0  0  0  0  0  0  0  0  0  0
   -1.1581   -1.3434    0.0000 C   0  0  0  0  0  0  0  0  0  0  0  0
   -0.4907   -1.8283    0.0000 N   0  0  0  0  0  0  0  0  0  0  0  0
    0.1767   -1.3434    0.0000 C   0  0  0  0  0  0  0  0  0  0  0  0
    0.9614   -1.5983    0.0000 C   0  0  0  0  0  0  0  0  0  0  0  0
    1.1329   -2.4053    0.0000 O   0  0  0  0  0  0  0  0  0  0  0  0
    1.5745   -1.0463    0.0000 O   0  0  0  0  0  0  0  0  0  0  0  0
   -1.3881    0.1087    0.0000 O   0  0  0  0  0  0  0  0  0  0  0  0
   -1.0526    0.8624    0.0000 C   0  0  0  0  0  0  0  0  0  0  0  0
   -0.2383    0.9949    0.0000 C   0  0  0  0  0  0  0  0  0  0  0  0
    0.0541    1.7663    0.0000 C   0  0  0  0  0  0  0  0  0  0  0  0
   -0.4678    2.4053    0.0000 C   0  0  0  0  0  0  0  0  0  0  0  0
   -1.2821    2.2728    0.0000 C   0  0  0  0  0  0  0  0  0  0  0  0
   -1.5745    1.5013    0.0000 C   0  0  0  0  0  0  0  0  0  0  0  0
  1  2  1  0      
  2  3  1  0      
  3  4  1  0      
  4  5  1  0      
  5  1  1  0      
  5  6  1  1      
  6  7  2  0      
  6  8  1  0      
  2  9  1  1      
  9 10  1  0      
 10 11  2  0      
 11 12  1  0      
 12 13  2  0      
 13 14  1  0      
 14 15  2  0      
 15 10  1  0      
M  END
$$$$
monomers.sdf
  ChemDraw12111913122D

 15 16  0  0  1  0  0  0  0  0999 V2000
   -0.0782   -0.5587    0.0000 C   0  0  0  0  0  0  0  0  0  0  0  0
   -0.9032   -0.5587    0.0000 C   0  0  0  0  0  0  0  0  0  0  0  0
   -1.1581   -1.3434    0.0000 C   0  0  0  0  0  0  0  0  0  0  0  0
   -0.4907   -1.8283    0.0000 N   0  0  0  0  0  0  0  0  0  0  0  0
    0.1767   -1.3434    0.0000 C   0  0  0  0  0  0  0  0  0  0  0  0
    0.9614   -1.5983    0.0000 C   0  0  0  0  0  0  0  0  0  0  0  0
    1.1329   -2.4053    0.0000 O   0  0  0  0  0  0  0  0  0  0  0  0
    1.5745   -1.0463    0.0000 O   0  0  0  0  0  0  0  0  0  0  0  0
   -1.3881    0.1087    0.0000 S   0  0  0  0  0  0  0  0  0  0  0  0
   -1.0526    0.8624    0.0000 C   0  0  0  0  0  0  0  0  0  0  0  0
   -0.2383    0.9949    0.0000 C   0  0  0  0  0  0  0  0  0  0  0  0
    0.0541    1.7663    0.0000 C   0  0  0  0  0  0  0  0  0  0  0  0
   -0.4678    2.4053    0.0000 C   0  0  0  0  0  0  0  0  0  0  0  0
   -1.2821    2.2728    0.0000 C   0  0  0  0  0  0  0  0  0  0  0  0
   -1.5745    1.5013    0.0000 C   0  0  0  0  0  0  0  0  0  0  0  0
  1  2  1  0      
  2  3  1  0      
  3  4  1  0      
  4  5  1  0      
  5  1  1  0      
  5  6  1  1      
  6  7  2  0      
  6  8  1  0      
  2  9  1  1      
  9 10  1  0      
 10 11  2  0      
 11 12  1  0      
 12 13  2  0      
 13 14  1  0      
 14 15  2  0      
 15 10  1  0      
M  END
$$$$
monomers.sdf
  ChemDraw12111913122D

 17 18  0  0  1  0  0  0  0  0999 V2000
   -0.0782   -0.6909    0.0000 C   0  0  0  0  0  0  0  0  0  0  0  0
   -0.9032   -0.6909    0.0000 C   0  0  0  0  0  0  0  0  0  0  0  0
   -1.1581   -1.4756    0.0000 C   0  0  0  0  0  0  0  0  0  0  0  0
   -0.4907   -1.9605    0.0000 N   0  0  0  0  0  0  0  0  0  0  0  0
    0.1767   -1.4756    0.0000 C   0  0  0  0  0  0  0  0  0  0  0  0
    0.9614   -1.7305    0.0000 C   0  0  0  0  0  0  0  0  0  0  0  0
    1.1329   -2.5375    0.0000 O   0  0  0  0  0  0  0  0  0  0  0  0
    1.5745   -1.1785    0.0000 O   0  0  0  0  0  0  0  0  0  0  0  0
   -1.3881   -0.0235    0.0000 O   0  0  0  0  0  0  0  0  0  0  0  0
   -1.0526    0.7302    0.0000 C   0  0  0  0  0  0  0  0  0  0  0  0
   -0.2383    0.8627    0.0000 C   0  0  0  0  0  0  0  0  0  0  0  0
    0.0541    1.6341    0.0000 C   0  0  0  0  0  0  0  0  0  0  0  0
   -0.4678    2.2731    0.0000 C   0  0  0  0  0  0  0  0  0  0  0  0
   -1.2821    2.1406    0.0000 C   0  0  0  0  0  0  0  0  0  0  0  0
   -1.5745    1.3691    0.0000 C   0  0  0  0  0  0  0  0  0  0  0  0
    0.8684    1.7666    0.0000 O   0  0  0  0  0  0  0  0  0  0  0  0
    1.1606    2.5375    0.0000 C   0  0  0  0  0  0  0  0  0  0  0  0
 16 17  1  0      
 12 16  1  0      
  1  2  1  0      
  2  3  1  0      
  3  4  1  0      
  4  5  1  0      
  5  1  1  0      
  5  6  1  1      
  6  7  2  0      
  6  8  1  0      
  2  9  1  1      
  9 10  1  0      
 10 11  2  0      
 11 12  1  0      
 12 13  2  0      
 13 14  1  0      
 14 15  2  0      
 15 10  1  0      
M  STY  1   1 SUP
M  SLB  1   1   1
M  SAL   1  2  16  17
M  SBL   1  1   2
M  SMT   1 OMe
M  SBV   1   2   -0.8143   -0.1325
M  END
$$$$
monomers.sdf
  ChemDraw12111913122D

 27 30  0  0  1  0  0  0  0  0999 V2000
    0.6508   -1.0652    0.0000 C   0  0  0  0  0  0  0  0  0  0  0  0
   -0.1742   -1.0652    0.0000 C   0  0  0  0  0  0  0  0  0  0  0  0
   -0.4291   -1.8498    0.0000 C   0  0  0  0  0  0  0  0  0  0  0  0
    0.2383   -2.3347    0.0000 N   0  0  0  0  0  0  0  0  0  0  0  0
    0.9058   -1.8498    0.0000 C   0  0  0  0  0  0  0  0  0  0  0  0
    1.6904   -2.1047    0.0000 C   0  0  0  0  0  0  0  0  0  0  0  0
    1.8619   -2.9117    0.0000 O   0  0  0  0  0  0  0  0  0  0  0  0
    2.3035   -1.5528    0.0000 O   0  0  0  0  0  0  0  0  0  0  0  0
   -0.6591   -0.3977    0.0000 O   0  0  0  0  0  0  0  0  0  0  0  0
   -0.3235    0.3559    0.0000 C   0  0  0  0  0  0  0  0  0  0  0  0
    0.4908    0.4884    0.0000 C   0  0  0  0  0  0  0  0  0  0  0  0
    0.7832    1.2599    0.0000 C   0  0  0  0  0  0  0  0  0  0  0  0
    0.2613    1.8988    0.0000 N   0  0  0  0  0  0  0  0  0  0  0  0
   -0.5530    1.7663    0.0000 C   0  0  0  0  0  0  0  0  0  0  0  0
   -0.8454    0.9949    0.0000 C   0  0  0  0  0  0  0  0  0  0  0  0
   -1.0749    2.4053    0.0000 C   0  0  0  0  0  0  0  0  0  0  0  0
   -1.8892    2.2728    0.0000 C   0  0  0  0  0  0  0  0  0  0  0  0
   -2.1816    1.5014    0.0000 C   0  0  0  0  0  0  0  0  0  0  0  0
   -1.6597    0.8624    0.0000 C   0  0  0  0  0  0  0  0  0  0  0  0
    1.5974    1.3925    0.0000 C   0  0  0  0  0  0  0  0  0  0  0  0
    2.1189    0.7539    0.0000 C   0  0  0  0  0  0  0  0  0  0  0  0
    2.9326    0.8863    0.0000 C   0  0  0  0  0  0  0  0  0  0  0  0
    3.2248    1.6572    0.0000 C   0  0  0  0  0  0  0  0  0  0  0  0
    2.7033    2.2956    0.0000 C   0  0  0  0  0  0  0  0  0  0  0  0
    1.8896    2.1632    0.0000 C   0  0  0  0  0  0  0  0  0  0  0  0
   -2.4111    2.9117    0.0000 O   0  0  0  0  0  0  0  0  0  0  0  0
   -3.2248    2.7793    0.0000 C   0  0  0  0  0  0  0  0  0  0  0  0
 24 25  2  0      
 23 24  1  0      
 22 23  2  0      
 21 22  1  0      
 20 21  2  0      
 20 25  1  0      
 12 20  1  0      
 26 27  1  0      
 17 26  1  0      
  1  2  1  0      
  2  3  1  0      
  3  4  1  0      
  4  5  1  0      
  5  1  1  0      
  5  6  1  1      
  6  7  2  0      
  6  8  1  0      
  2  9  1  1      
  9 10  1  0      
 10 11  2  0      
 11 12  1  0      
 12 13  2  0      
 13 14  1  0      
 14 15  2  0      
 15 10  1  0      
 14 16  1  0      
 16 17  2  0      
 17 18  1  0      
 18 19  2  0      
 19 15  1  0      
M  STY  1   1 SUP
M  SLB  1   1   1
M  SAL   1  6  20  21  22  23  24  25
M  SBL   1  1   7
M  SMT   1 Ph
M  SBV   1   7   -0.8143   -0.1326
M  STY  1   2 SUP
M  SLB  1   2   2
M  SAL   2  2  26  27
M  SBL   2  1   9
M  SMT   2 OMe
M  SBV   2   9    0.5219   -0.6389
M  END
$$$$
monomers.sdf
  ChemDraw12111913122D

  9  9  0  0  1  0  0  0  0  0999 V2000
   -0.9969    0.5365    0.0000 C   0  0  0  0  0  0  0  0  0  0  0  0
   -1.2104   -0.2604    0.0000 C   0  0  0  0  0  0  0  0  0  0  0  0
   -0.5185   -0.7098    0.0000 N   0  0  0  0  0  0  0  0  0  0  0  0
    0.1226   -0.1906    0.0000 C   0  0  0  0  0  0  0  0  0  0  0  0
   -0.1730    0.5365    0.0000 C   0  0  0  0  0  0  0  0  0  0  0  0
   -1.4992    1.1910    0.0000 O   0  0  0  0  0  0  0  0  0  0  0  0
    0.9216   -0.3962    0.0000 C   0  0  0  0  0  0  0  0  0  0  0  0
    1.1429   -1.1910    0.0000 O   0  0  0  0  0  0  0  0  0  0  0  0
    1.4992    0.1929    0.0000 O   0  0  0  0  0  0  0  0  0  0  0  0
  1  2  1  0      
  2  3  1  0      
  3  4  1  0      
  4  5  1  0      
  5  1  1  0      
  1  6  1  1      
  4  7  1  1      
  7  8  2  0      
  7  9  1  0      
M  END
$$$$
monomers.sdf
  ChemDraw12111913122D

 18 20  0  0  1  0  0  0  0  0999 V2000
   -0.0782   -0.5587    0.0000 C   0  0  0  0  0  0  0  0  0  0  0  0
   -0.9032   -0.5587    0.0000 C   0  0  0  0  0  0  0  0  0  0  0  0
   -1.1581   -1.3434    0.0000 C   0  0  0  0  0  0  0  0  0  0  0  0
   -0.4907   -1.8283    0.0000 N   0  0  0  0  0  0  0  0  0  0  0  0
    0.1767   -1.3434    0.0000 C   0  0  0  0  0  0  0  0  0  0  0  0
    0.9614   -1.5983    0.0000 C   0  0  0  0  0  0  0  0  0  0  0  0
    1.1329   -2.4053    0.0000 O   0  0  0  0  0  0  0  0  0  0  0  0
    1.5745   -1.0463    0.0000 O   0  0  0  0  0  0  0  0  0  0  0  0
   -1.3881    0.1087    0.0000 O   0  0  0  0  0  0  0  0  0  0  0  0
   -1.0526    0.8624    0.0000 C   0  0  0  0  0  0  0  0  0  0  0  0
   -0.2383    0.9949    0.0000 C   0  0  0  0  0  0  0  0  0  0  0  0
    0.0541    1.7663    0.0000 C   0  0  0  0  0  0  0  0  0  0  0  0
   -0.4678    2.4053    0.0000 N   0  0  0  0  0  0  0  0  0  0  0  0
   -1.2821    2.2728    0.0000 C   0  0  0  0  0  0  0  0  0  0  0  0
   -1.5745    1.5013    0.0000 C   0  0  0  0  0  0  0  0  0  0  0  0
    0.4051    0.4784    0.0000 C   0  0  0  0  0  0  0  0  0  0  0  0
    1.0951    0.9307    0.0000 C   0  0  0  0  0  0  0  0  0  0  0  0
    0.8782    1.7663    0.0000 S   0  0  0  0  0  0  0  0  0  0  0  0
  1  2  1  0      
  2  3  1  0      
  3  4  1  0      
  4  5  1  0      
  5  1  1  0      
  5  6  1  1      
  6  7  2  0      
  6  8  1  0      
  2  9  1  1      
  9 10  1  0      
 10 11  2  0      
 11 12  1  0      
 12 13  2  0      
 13 14  1  0      
 14 15  2  0      
 15 10  1  0      
 11 16  1  0      
 16 17  2  0      
 17 18  1  0      
 18 12  1  0      
M  END
$$$$
monomers.sdf
  ChemDraw12111913122D

 18 20  0  0  1  0  0  0  0  0999 V2000
   -0.0782   -0.5587    0.0000 C   0  0  0  0  0  0  0  0  0  0  0  0
   -0.9032   -0.5587    0.0000 C   0  0  0  0  0  0  0  0  0  0  0  0
   -1.1581   -1.3434    0.0000 C   0  0  0  0  0  0  0  0  0  0  0  0
   -0.4907   -1.8283    0.0000 N   0  0  0  0  0  0  0  0  0  0  0  0
    0.1767   -1.3434    0.0000 C   0  0  0  0  0  0  0  0  0  0  0  0
    0.9614   -1.5983    0.0000 C   0  0  0  0  0  0  0  0  0  0  0  0
    1.1329   -2.4053    0.0000 O   0  0  0  0  0  0  0  0  0  0  0  0
    1.5745   -1.0463    0.0000 O   0  0  0  0  0  0  0  0  0  0  0  0
   -1.3881    0.1087    0.0000 O   0  0  0  0  0  0  0  0  0  0  0  0
   -1.0526    0.8624    0.0000 C   0  0  0  0  0  0  0  0  0  0  0  0
   -0.2383    0.9949    0.0000 C   0  0  0  0  0  0  0  0  0  0  0  0
    0.0541    1.7663    0.0000 C   0  0  0  0  0  0  0  0  0  0  0  0
   -0.4678    2.4053    0.0000 N   0  0  0  0  0  0  0  0  0  0  0  0
   -1.2821    2.2728    0.0000 C   0  0  0  0  0  0  0  0  0  0  0  0
   -1.5745    1.5013    0.0000 C   0  0  0  0  0  0  0  0  0  0  0  0
    0.4051    0.4784    0.0000 S   0  0  0  0  0  0  0  0  0  0  0  0
    1.0951    0.9307    0.0000 C   0  0  0  0  0  0  0  0  0  0  0  0
    0.8782    1.7663    0.0000 C   0  0  0  0  0  0  0  0  0  0  0  0
  1  2  1  0      
  2  3  1  0      
  3  4  1  0      
  4  5  1  0      
  5  1  1  0      
  5  6  1  1      
  6  7  2  0      
  6  8  1  0      
  2  9  1  1      
  9 10  1  0      
 10 11  2  0      
 11 12  1  0      
 12 13  2  0      
 13 14  1  0      
 14 15  2  0      
 15 10  1  0      
 11 16  1  0      
 16 17  1  0      
 17 18  2  0      
 18 12  1  0      
M  END
$$$$
monomers.sdf
  ChemDraw12111913122D

 10 11  0  0  1  0  0  0  0  0999 V2000
   -0.7156    1.2365    0.0000 C   0  0  0  0  0  0  0  0  0  0  0  0
   -1.4295    0.8230    0.0000 C   0  0  0  0  0  0  0  0  0  0  0  0
   -1.4284   -0.0020    0.0000 C   0  0  0  0  0  0  0  0  0  0  0  0
   -0.7133   -0.4135    0.0000 C   0  0  0  0  0  0  0  0  0  0  0  0
    0.0006    0.0000    0.0000 C   0  0  0  0  0  0  0  0  0  0  0  0
   -0.0006    0.8250    0.0000 N   0  0  0  0  0  0  0  0  0  0  0  0
   -0.5010    0.4399    0.0000 C   0  0  0  0  0  0  0  0  0  0  0  0
    0.7156   -0.4115    0.0000 C   0  0  0  0  0  0  0  0  0  0  0  0
    1.4295    0.0020    0.0000 O   0  0  0  0  0  0  0  0  0  0  0  0
    0.7168   -1.2365    0.0000 O   0  0  0  0  0  0  0  0  0  0  0  0
  1  2  1  0      
  2  3  1  0      
  3  4  1  0      
  4  5  1  0      
  5  6  1  0      
  6  1  1  0      
  1  7  1  1      
  4  7  1  1      
  5  8  1  6      
  8  9  1  0      
  8 10  2  0      
M  END
$$$$
monomers.sdf
  ChemDraw12111913122D

 11 12  0  0  1  0  0  0  0  0999 V2000
    0.7292   -0.0986    0.0000 N   0  0  0  0  0  0  0  0  0  0  0  0
   -0.0009    0.2855    0.0000 C   0  0  0  0  0  0  0  0  0  0  0  0
   -0.7564   -0.0459    0.0000 C   0  0  0  0  0  0  0  0  0  0  0  0
   -0.9384   -0.8500    0.0000 C   0  0  0  0  0  0  0  0  0  0  0  0
   -0.4097   -1.5213    0.0000 C   0  0  0  0  0  0  0  0  0  0  0  0
    0.4014   -1.5476    0.0000 C   0  0  0  0  0  0  0  0  0  0  0  0
    0.9384   -0.9212    0.0000 C   0  0  0  0  0  0  0  0  0  0  0  0
    0.0284    1.1100    0.0000 C   0  0  0  0  0  0  0  0  0  0  0  0
    0.7570    1.4969    0.0000 O   0  0  0  0  0  0  0  0  0  0  0  0
   -0.6710    1.5476    0.0000 O   0  0  0  0  0  0  0  0  0  0  0  0
   -0.0494   -0.7972    0.0000 C   0  0  0  0  0  0  0  0  0  0  0  0
  1  2  1  0      
  2  3  1  0      
  3  4  1  0      
  4  5  1  0      
  5  6  1  0      
  6  7  1  0      
  7  1  1  0      
  2  8  1  6      
  8  9  2  0      
  8 10  1  0      
  3 11  1  1      
  7 11  1  1      
M  END
$$$$
monomers.sdf
  ChemDraw12111913122D

 10 11  0  0  1  0  0  0  0  0999 V2000
   -0.2815   -0.1127    0.0000 C   0  0  0  0  0  0  0  0  0  0  0  0
   -0.2815   -0.9377    0.0000 C   0  0  0  0  0  0  0  0  0  0  0  0
    0.5032   -1.1927    0.0000 C   0  0  0  0  0  0  0  0  0  0  0  0
    0.9881   -0.5252    0.0000 C   0  0  0  0  0  0  0  0  0  0  0  0
    0.5032    0.1422    0.0000 N   0  0  0  0  0  0  0  0  0  0  0  0
    1.7025   -0.9377    0.0000 C   0  0  0  0  0  0  0  0  0  0  0  0
    1.7025   -0.1127    0.0000 C   0  0  0  0  0  0  0  0  0  0  0  0
   -0.9489    0.3722    0.0000 C   0  0  0  0  0  0  0  0  0  0  0  0
   -1.7025    0.0366    0.0000 O   0  0  0  0  0  0  0  0  0  0  0  0
   -0.8627    1.1927    0.0000 O   0  0  0  0  0  0  0  0  0  0  0  0
  1  2  1  0      
  2  3  1  0      
  3  4  1  0      
  4  5  1  0      
  5  1  1  0      
  4  6  1  0      
  6  7  1  0      
  7  4  1  0      
  1  8  1  6      
  8  9  1  0      
  8 10  2  0      
M  END
$$$$
monomers.sdf
  ChemDraw12111913122D

  9 10  0  0  1  0  0  0  0  0999 V2000
   -0.5660    1.1114    0.0000 C   0  0  0  0  0  0  0  0  0  0  0  0
   -0.5660    0.2864    0.0000 C   0  0  0  0  0  0  0  0  0  0  0  0
    0.2186    0.0314    0.0000 C   0  0  0  0  0  0  0  0  0  0  0  0
    0.7035    0.6989    0.0000 N   0  0  0  0  0  0  0  0  0  0  0  0
    0.2186    1.3663    0.0000 C   0  0  0  0  0  0  0  0  0  0  0  0
   -1.2805    0.6989    0.0000 C   0  0  0  0  0  0  0  0  0  0  0  0
    0.4735   -0.7532    0.0000 C   0  0  0  0  0  0  0  0  0  0  0  0
   -0.0785   -1.3663    0.0000 O   0  0  0  0  0  0  0  0  0  0  0  0
    1.2805   -0.9247    0.0000 O   0  0  0  0  0  0  0  0  0  0  0  0
  1  2  1  0      
  2  3  1  0      
  3  4  1  0      
  4  5  1  0      
  5  1  1  0      
  1  6  1  1      
  2  6  1  1      
  3  7  1  6      
  7  8  2  0      
  7  9  1  0      
M  END
$$$$
monomers.sdf
  ChemDraw12111913122D

 10 11  0  0  1  0  0  0  0  0999 V2000
   -0.7156    1.2365    0.0000 C   0  0  0  0  0  0  0  0  0  0  0  0
   -1.4295    0.8230    0.0000 C   0  0  0  0  0  0  0  0  0  0  0  0
   -1.4284   -0.0020    0.0000 C   0  0  0  0  0  0  0  0  0  0  0  0
   -0.7133   -0.4135    0.0000 C   0  0  0  0  0  0  0  0  0  0  0  0
    0.0006    0.0000    0.0000 C   0  0  0  0  0  0  0  0  0  0  0  0
   -0.0006    0.8250    0.0000 N   0  0  0  0  0  0  0  0  0  0  0  0
   -0.5010    0.4399    0.0000 C   0  0  0  0  0  0  0  0  0  0  0  0
    0.7156   -0.4115    0.0000 C   0  0  0  0  0  0  0  0  0  0  0  0
    1.4295    0.0020    0.0000 O   0  0  0  0  0  0  0  0  0  0  0  0
    0.7168   -1.2365    0.0000 O   0  0  0  0  0  0  0  0  0  0  0  0
  1  2  1  0      
  2  3  1  0      
  3  4  1  0      
  4  5  1  0      
  5  6  1  0      
  6  1  1  0      
  1  7  1  6      
  4  7  1  6      
  5  8  1  6      
  8  9  1  0      
  8 10  2  0      
M  END
$$$$
monomers.sdf
  ChemDraw12111913122D

 10 11  0  0  1  0  0  0  0  0999 V2000
   -0.7156    1.2365    0.0000 C   0  0  0  0  0  0  0  0  0  0  0  0
   -1.4295    0.8230    0.0000 C   0  0  0  0  0  0  0  0  0  0  0  0
   -1.4284   -0.0020    0.0000 C   0  0  0  0  0  0  0  0  0  0  0  0
   -0.7133   -0.4135    0.0000 C   0  0  0  0  0  0  0  0  0  0  0  0
    0.0006    0.0000    0.0000 C   0  0  0  0  0  0  0  0  0  0  0  0
   -0.0006    0.8250    0.0000 N   0  0  0  0  0  0  0  0  0  0  0  0
   -0.5010    0.4399    0.0000 C   0  0  0  0  0  0  0  0  0  0  0  0
    0.7156   -0.4115    0.0000 C   0  0  0  0  0  0  0  0  0  0  0  0
    1.4295    0.0020    0.0000 O   0  0  0  0  0  0  0  0  0  0  0  0
    0.7168   -1.2365    0.0000 O   0  0  0  0  0  0  0  0  0  0  0  0
  1  2  1  0      
  2  3  1  0      
  3  4  1  0      
  4  5  1  0      
  5  6  1  0      
  6  1  1  0      
  1  7  1  1      
  4  7  1  1      
  5  8  1  1      
  8  9  1  0      
  8 10  2  0      
M  END
$$$$
monomers.sdf
  ChemDraw12111913122D

 10 11  0  0  1  0  0  0  0  0999 V2000
   -0.7156    1.2365    0.0000 C   0  0  0  0  0  0  0  0  0  0  0  0
   -1.4295    0.8230    0.0000 C   0  0  0  0  0  0  0  0  0  0  0  0
   -1.4284   -0.0020    0.0000 C   0  0  0  0  0  0  0  0  0  0  0  0
   -0.7133   -0.4135    0.0000 C   0  0  0  0  0  0  0  0  0  0  0  0
    0.0006    0.0000    0.0000 C   0  0  0  0  0  0  0  0  0  0  0  0
   -0.0006    0.8250    0.0000 N   0  0  0  0  0  0  0  0  0  0  0  0
   -0.5010    0.4399    0.0000 C   0  0  0  0  0  0  0  0  0  0  0  0
    0.7156   -0.4115    0.0000 C   0  0  0  0  0  0  0  0  0  0  0  0
    1.4295    0.0020    0.0000 O   0  0  0  0  0  0  0  0  0  0  0  0
    0.7168   -1.2365    0.0000 O   0  0  0  0  0  0  0  0  0  0  0  0
  1  2  1  0      
  2  3  1  0      
  3  4  1  0      
  4  5  1  0      
  5  6  1  0      
  6  1  1  0      
  1  7  1  6      
  4  7  1  6      
  5  8  1  1      
  8  9  1  0      
  8 10  2  0      
M  END
$$$$
monomers.sdf
  ChemDraw12111913122D

  9 10  0  0  1  0  0  0  0  0999 V2000
   -0.5660    1.1114    0.0000 C   0  0  0  0  0  0  0  0  0  0  0  0
   -0.5660    0.2864    0.0000 C   0  0  0  0  0  0  0  0  0  0  0  0
    0.2186    0.0314    0.0000 C   0  0  0  0  0  0  0  0  0  0  0  0
    0.7035    0.6989    0.0000 N   0  0  0  0  0  0  0  0  0  0  0  0
    0.2186    1.3663    0.0000 C   0  0  0  0  0  0  0  0  0  0  0  0
   -1.2805    0.6989    0.0000 C   0  0  0  0  0  0  0  0  0  0  0  0
    0.4735   -0.7532    0.0000 C   0  0  0  0  0  0  0  0  0  0  0  0
   -0.0785   -1.3663    0.0000 O   0  0  0  0  0  0  0  0  0  0  0  0
    1.2805   -0.9247    0.0000 O   0  0  0  0  0  0  0  0  0  0  0  0
  1  2  1  0      
  2  3  1  0      
  3  4  1  0      
  4  5  1  0      
  5  1  1  0      
  1  6  1  6      
  2  6  1  6      
  3  7  1  6      
  7  8  2  0      
  7  9  1  0      
M  END
$$$$
monomers.sdf
  ChemDraw12111913122D

 11 12  0  0  1  0  0  0  0  0999 V2000
    0.7292   -0.0986    0.0000 N   0  0  0  0  0  0  0  0  0  0  0  0
   -0.0009    0.2855    0.0000 C   0  0  0  0  0  0  0  0  0  0  0  0
   -0.7564   -0.0459    0.0000 C   0  0  0  0  0  0  0  0  0  0  0  0
   -0.9384   -0.8500    0.0000 C   0  0  0  0  0  0  0  0  0  0  0  0
   -0.4097   -1.5213    0.0000 C   0  0  0  0  0  0  0  0  0  0  0  0
    0.4014   -1.5476    0.0000 C   0  0  0  0  0  0  0  0  0  0  0  0
    0.9384   -0.9212    0.0000 C   0  0  0  0  0  0  0  0  0  0  0  0
    0.0284    1.1100    0.0000 C   0  0  0  0  0  0  0  0  0  0  0  0
    0.7570    1.4969    0.0000 O   0  0  0  0  0  0  0  0  0  0  0  0
   -0.6710    1.5476    0.0000 O   0  0  0  0  0  0  0  0  0  0  0  0
   -0.0494   -0.7972    0.0000 C   0  0  0  0  0  0  0  0  0  0  0  0
  1  2  1  0      
  2  3  1  0      
  3  4  1  0      
  4  5  1  0      
  5  6  1  0      
  6  7  1  0      
  7  1  1  0      
  2  8  1  1      
  8  9  2  0      
  8 10  1  0      
  3 11  1  1      
  7 11  1  1      
M  END
$$$$
monomers.sdf
  ChemDraw12111913122D

 11 12  0  0  1  0  0  0  0  0999 V2000
    0.7292   -0.0986    0.0000 N   0  0  0  0  0  0  0  0  0  0  0  0
   -0.0009    0.2855    0.0000 C   0  0  0  0  0  0  0  0  0  0  0  0
   -0.7564   -0.0459    0.0000 C   0  0  0  0  0  0  0  0  0  0  0  0
   -0.9384   -0.8500    0.0000 C   0  0  0  0  0  0  0  0  0  0  0  0
   -0.4097   -1.5213    0.0000 C   0  0  0  0  0  0  0  0  0  0  0  0
    0.4014   -1.5476    0.0000 C   0  0  0  0  0  0  0  0  0  0  0  0
    0.9384   -0.9212    0.0000 C   0  0  0  0  0  0  0  0  0  0  0  0
    0.0284    1.1100    0.0000 C   0  0  0  0  0  0  0  0  0  0  0  0
    0.7570    1.4969    0.0000 O   0  0  0  0  0  0  0  0  0  0  0  0
   -0.6710    1.5476    0.0000 O   0  0  0  0  0  0  0  0  0  0  0  0
   -0.0494   -0.7972    0.0000 C   0  0  0  0  0  0  0  0  0  0  0  0
  1  2  1  0      
  2  3  1  0      
  3  4  1  0      
  4  5  1  0      
  5  6  1  0      
  6  7  1  0      
  7  1  1  0      
  2  8  1  6      
  8  9  2  0      
  8 10  1  0      
  3 11  1  6      
  7 11  1  6      
M  END
$$$$
monomers.sdf
  ChemDraw12111913122D

 11 12  0  0  1  0  0  0  0  0999 V2000
    0.7292   -0.0986    0.0000 N   0  0  0  0  0  0  0  0  0  0  0  0
   -0.0009    0.2855    0.0000 C   0  0  0  0  0  0  0  0  0  0  0  0
   -0.7564   -0.0459    0.0000 C   0  0  0  0  0  0  0  0  0  0  0  0
   -0.9384   -0.8500    0.0000 C   0  0  0  0  0  0  0  0  0  0  0  0
   -0.4097   -1.5213    0.0000 C   0  0  0  0  0  0  0  0  0  0  0  0
    0.4014   -1.5476    0.0000 C   0  0  0  0  0  0  0  0  0  0  0  0
    0.9384   -0.9212    0.0000 C   0  0  0  0  0  0  0  0  0  0  0  0
    0.0284    1.1100    0.0000 C   0  0  0  0  0  0  0  0  0  0  0  0
    0.7570    1.4969    0.0000 O   0  0  0  0  0  0  0  0  0  0  0  0
   -0.6710    1.5476    0.0000 O   0  0  0  0  0  0  0  0  0  0  0  0
   -0.0494   -0.7972    0.0000 C   0  0  0  0  0  0  0  0  0  0  0  0
  1  2  1  0      
  2  3  1  0      
  3  4  1  0      
  4  5  1  0      
  5  6  1  0      
  6  7  1  0      
  7  1  1  0      
  2  8  1  1      
  8  9  2  0      
  8 10  1  0      
  3 11  1  6      
  7 11  1  6      
M  END
$$$$
monomers.sdf
  ChemDraw12111913122D

  9 10  0  0  1  0  0  0  0  0999 V2000
   -0.8963    0.4125    0.0000 C   0  0  0  0  0  0  0  0  0  0  0  0
   -0.8963   -0.4125    0.0000 C   0  0  0  0  0  0  0  0  0  0  0  0
   -0.1117   -0.6674    0.0000 C   0  0  0  0  0  0  0  0  0  0  0  0
    0.3733    0.0000    0.0000 C   0  0  0  0  0  0  0  0  0  0  0  0
   -0.1117    0.6674    0.0000 N   0  0  0  0  0  0  0  0  0  0  0  0
   -1.6108    0.0000    0.0000 C   0  0  0  0  0  0  0  0  0  0  0  0
    1.1983    0.0000    0.0000 C   0  0  0  0  0  0  0  0  0  0  0  0
    1.6108    0.7145    0.0000 O   0  0  0  0  0  0  0  0  0  0  0  0
    1.6108   -0.7145    0.0000 O   0  0  0  0  0  0  0  0  0  0  0  0
  1  2  1  0      
  2  3  1  0      
  3  4  1  0      
  4  5  1  0      
  5  1  1  0      
  1  6  1  1      
  2  6  1  1      
  4  7  1  6      
  7  8  2  0      
  7  9  1  0      
M  END
$$$$
monomers.sdf
  ChemDraw12111913122D

 10 11  0  0  1  0  0  0  0  0999 V2000
   -0.2815   -0.1127    0.0000 C   0  0  0  0  0  0  0  0  0  0  0  0
   -0.2815   -0.9377    0.0000 C   0  0  0  0  0  0  0  0  0  0  0  0
    0.5032   -1.1927    0.0000 C   0  0  0  0  0  0  0  0  0  0  0  0
    0.9881   -0.5252    0.0000 C   0  0  0  0  0  0  0  0  0  0  0  0
    0.5032    0.1422    0.0000 N   0  0  0  0  0  0  0  0  0  0  0  0
    1.7025   -0.9377    0.0000 C   0  0  0  0  0  0  0  0  0  0  0  0
    1.7025   -0.1127    0.0000 C   0  0  0  0  0  0  0  0  0  0  0  0
   -0.9489    0.3722    0.0000 C   0  0  0  0  0  0  0  0  0  0  0  0
   -1.7025    0.0366    0.0000 O   0  0  0  0  0  0  0  0  0  0  0  0
   -0.8627    1.1927    0.0000 O   0  0  0  0  0  0  0  0  0  0  0  0
  1  2  1  0      
  2  3  1  0      
  3  4  1  0      
  4  5  1  0      
  5  1  1  0      
  4  6  1  0      
  6  7  1  0      
  7  4  1  0      
  1  8  1  1      
  8  9  1  0      
  8 10  2  0      
M  END
$$$$
monomers.sdf
  ChemDraw12111913122D

  9 10  0  0  1  0  0  0  0  0999 V2000
   -0.8963    0.4125    0.0000 C   0  0  0  0  0  0  0  0  0  0  0  0
   -0.8963   -0.4125    0.0000 C   0  0  0  0  0  0  0  0  0  0  0  0
   -0.1117   -0.6674    0.0000 C   0  0  0  0  0  0  0  0  0  0  0  0
    0.3733    0.0000    0.0000 C   0  0  0  0  0  0  0  0  0  0  0  0
   -0.1117    0.6674    0.0000 N   0  0  0  0  0  0  0  0  0  0  0  0
   -1.6108    0.0000    0.0000 C   0  0  0  0  0  0  0  0  0  0  0  0
    1.1983    0.0000    0.0000 C   0  0  0  0  0  0  0  0  0  0  0  0
    1.6108    0.7145    0.0000 O   0  0  0  0  0  0  0  0  0  0  0  0
    1.6108   -0.7145    0.0000 O   0  0  0  0  0  0  0  0  0  0  0  0
  1  2  1  0      
  2  3  1  0      
  3  4  1  0      
  4  5  1  0      
  5  1  1  0      
  1  6  1  6      
  2  6  1  6      
  4  7  1  6      
  7  8  2  0      
  7  9  1  0      
M  END
$$$$
monomers.sdf
  ChemDraw12111913122D

  9 10  0  0  1  0  0  0  0  0999 V2000
   -1.2535    0.4125    0.0000 C   0  0  0  0  0  0  0  0  0  0  0  0
   -1.2535   -0.4125    0.0000 C   0  0  0  0  0  0  0  0  0  0  0  0
   -0.4689   -0.6674    0.0000 N   0  0  0  0  0  0  0  0  0  0  0  0
    0.0160    0.0000    0.0000 C   0  0  0  0  0  0  0  0  0  0  0  0
   -0.4689    0.6674    0.0000 C   0  0  0  0  0  0  0  0  0  0  0  0
    0.8410    0.0000    0.0000 C   0  0  0  0  0  0  0  0  0  0  0  0
    1.2535   -0.7145    0.0000 O   0  0  0  0  0  0  0  0  0  0  0  0
    1.2535    0.7145    0.0000 O   0  0  0  0  0  0  0  0  0  0  0  0
   -0.6702    0.1709    0.0000 C   0  0  0  0  0  0  0  0  0  0  0  0
  1  2  1  0      
  2  3  1  0      
  3  4  1  0      
  4  5  1  0      
  5  1  1  0      
  4  6  1  0      
  6  7  1  0      
  6  8  2  0      
  2  9  1  1      
  4  9  1  1      
M  END
$$$$
monomers.sdf
  ChemDraw12111913122D

  9 10  0  0  1  0  0  0  0  0999 V2000
   -1.2535    0.4125    0.0000 C   0  0  0  0  0  0  0  0  0  0  0  0
   -1.2535   -0.4125    0.0000 C   0  0  0  0  0  0  0  0  0  0  0  0
   -0.4689   -0.6674    0.0000 N   0  0  0  0  0  0  0  0  0  0  0  0
    0.0160    0.0000    0.0000 C   0  0  0  0  0  0  0  0  0  0  0  0
   -0.4689    0.6674    0.0000 C   0  0  0  0  0  0  0  0  0  0  0  0
    0.8410    0.0000    0.0000 C   0  0  0  0  0  0  0  0  0  0  0  0
    1.2535   -0.7145    0.0000 O   0  0  0  0  0  0  0  0  0  0  0  0
    1.2535    0.7145    0.0000 O   0  0  0  0  0  0  0  0  0  0  0  0
   -0.6702    0.1709    0.0000 C   0  0  0  0  0  0  0  0  0  0  0  0
  1  2  1  0      
  2  3  1  0      
  3  4  1  0      
  4  5  1  0      
  5  1  1  0      
  4  6  1  0      
  6  7  1  0      
  6  8  2  0      
  2  9  1  6      
  4  9  1  6      
M  END
$$$$
monomers.sdf
  ChemDraw12111913122D

 10 11  0  0  1  0  0  0  0  0999 V2000
   -0.7145   -0.2062    0.0000 C   0  0  0  0  0  0  0  0  0  0  0  0
   -0.7145   -1.0312    0.0000 C   0  0  0  0  0  0  0  0  0  0  0  0
    0.0000   -1.4438    0.0000 C   0  0  0  0  0  0  0  0  0  0  0  0
    0.7145   -1.0312    0.0000 C   0  0  0  0  0  0  0  0  0  0  0  0
    0.7145   -0.2062    0.0000 N   0  0  0  0  0  0  0  0  0  0  0  0
    0.0000    0.2062    0.0000 C   0  0  0  0  0  0  0  0  0  0  0  0
    0.0000    1.0312    0.0000 C   0  0  0  0  0  0  0  0  0  0  0  0
   -0.7145    1.4438    0.0000 O   0  0  0  0  0  0  0  0  0  0  0  0
    0.7145    1.4438    0.0000 O   0  0  0  0  0  0  0  0  0  0  0  0
    0.2135   -0.5906    0.0000 C   0  0  0  0  0  0  0  0  0  0  0  0
  1  2  1  0      
  2  3  1  0      
  3  4  1  0      
  4  5  1  0      
  5  6  1  0      
  6  1  1  0      
  6  7  1  0      
  7  8  1  0      
  7  9  2  0      
  6 10  1  1      
  3 10  1  1      
M  END
$$$$
monomers.sdf
  ChemDraw12111913122D

 10 11  0  0  1  0  0  0  0  0999 V2000
   -0.7145   -0.2062    0.0000 C   0  0  0  0  0  0  0  0  0  0  0  0
   -0.7145   -1.0312    0.0000 C   0  0  0  0  0  0  0  0  0  0  0  0
    0.0000   -1.4438    0.0000 C   0  0  0  0  0  0  0  0  0  0  0  0
    0.7145   -1.0312    0.0000 C   0  0  0  0  0  0  0  0  0  0  0  0
    0.7145   -0.2062    0.0000 N   0  0  0  0  0  0  0  0  0  0  0  0
    0.0000    0.2062    0.0000 C   0  0  0  0  0  0  0  0  0  0  0  0
    0.0000    1.0312    0.0000 C   0  0  0  0  0  0  0  0  0  0  0  0
   -0.7145    1.4438    0.0000 O   0  0  0  0  0  0  0  0  0  0  0  0
    0.7145    1.4438    0.0000 O   0  0  0  0  0  0  0  0  0  0  0  0
    0.2135   -0.5906    0.0000 C   0  0  0  0  0  0  0  0  0  0  0  0
  1  2  1  0      
  2  3  1  0      
  3  4  1  0      
  4  5  1  0      
  5  6  1  0      
  6  1  1  0      
  6  7  1  0      
  7  8  1  0      
  7  9  2  0      
  6 10  1  6      
  3 10  1  6      
M  END
$$$$
monomers.sdf
  ChemDraw12111913122D

 11 11  0  0  1  0  0  0  0  0999 V2000
   -1.5052    1.1114    0.0000 C   0  0  0  0  0  0  0  0  0  0  0  0
   -1.5052    0.2864    0.0000 C   0  0  0  0  0  0  0  0  0  0  0  0
   -0.7206    0.0314    0.0000 C   0  0  0  0  0  0  0  0  0  0  0  0
   -0.2357    0.6989    0.0000 N   0  0  0  0  0  0  0  0  0  0  0  0
   -0.7206    1.3663    0.0000 C   0  0  0  0  0  0  0  0  0  0  0  0
   -0.4657   -0.7532    0.0000 C   0  0  0  0  0  0  0  0  0  0  0  0
   -1.0177   -1.3663    0.0000 O   0  0  0  0  0  0  0  0  0  0  0  0
    0.3413   -0.9247    0.0000 O   0  0  0  0  0  0  0  0  0  0  0  0
    0.0763   -0.1821    0.0000 C   0  0  0  0  0  0  0  0  0  0  0  0
    0.7908    0.2304    0.0000 C   0  0  0  0  0  0  0  0  0  0  0  0
    1.5052    0.6429    0.0000 C   0  0  0  0  0  0  0  0  0  0  0  0
  1  2  1  0      
  2  3  1  0      
  3  4  1  0      
  4  5  1  0      
  5  1  1  0      
  3  6  1  0      
  6  7  1  0      
  6  8  2  0      
  3  9  1  1      
  9 10  1  0      
 10 11  3  0      
M  END
$$$$
monomers.sdf
  ChemDraw12111913122D

 13 14  0  0  1  0  0  0  0  0999 V2000
   -1.8998   -0.0452    0.0000 C   0  0  0  0  0  0  0  0  0  0  0  0
   -1.3914   -0.6949    0.0000 C   0  0  0  0  0  0  0  0  0  0  0  0
   -0.6164   -0.4122    0.0000 C   0  0  0  0  0  0  0  0  0  0  0  0
   -0.6458    0.4122    0.0000 C   0  0  0  0  0  0  0  0  0  0  0  0
   -1.4390    0.6391    0.0000 C   0  0  0  0  0  0  0  0  0  0  0  0
    0.1768   -0.6391    0.0000 N   0  0  0  0  0  0  0  0  0  0  0  0
    0.6377    0.0452    0.0000 C   0  0  0  0  0  0  0  0  0  0  0  0
    0.1293    0.6949    0.0000 C   0  0  0  0  0  0  0  0  0  0  0  0
    1.4621    0.0745    0.0000 C   0  0  0  0  0  0  0  0  0  0  0  0
    1.8998   -0.6248    0.0000 O   0  0  0  0  0  0  0  0  0  0  0  0
    1.8490    0.8032    0.0000 O   0  0  0  0  0  0  0  0  0  0  0  0
   -0.6751    1.2367    0.0000 H   0  0  0  0  0  0  0  0  0  0  0  0
   -0.5870   -1.2367    0.0000 H   0  0  0  0  0  0  0  0  0  0  0  0
  1  2  1  0      
  2  3  1  0      
  3  4  1  0      
  4  5  1  0      
  5  1  1  0      
  3  6  1  0      
  6  7  1  0      
  7  8  1  0      
  8  4  1  0      
  7  9  1  1      
  9 10  1  0      
  9 11  2  0      
  4 12  1  6      
  3 13  1  6      
M  END
$$$$
monomers.sdf
  ChemDraw12111913122D

  9  8  0  0  0  0  0  0  0  0999 V2000
    1.4289    1.0312    0.0000 O   0  0  0  0  0  0  0  0  0  0  0  0
    1.4289    0.2062    0.0000 C   0  0  0  0  0  0  0  0  0  0  0  0
    2.1435   -0.2062    0.0000 O   0  0  0  0  0  0  0  0  0  0  0  0
    0.7145   -0.2062    0.0000 C   0  0  0  0  0  0  0  0  0  0  0  0
    0.7145   -1.0312    0.0000 N   0  0  0  0  0  0  0  0  0  0  0  0
    0.0000    0.2062    0.0000 C   0  0  0  0  0  0  0  0  0  0  0  0
   -0.7145   -0.2062    0.0000 C   0  0  0  0  0  0  0  0  0  0  0  0
   -1.4289    0.2063    0.0000 C   0  0  0  0  0  0  0  0  0  0  0  0
   -2.1435   -0.2062    0.0000 N   0  0  0  0  0  0  0  0  0  0  0  0
  1  2  2  0      
  2  3  1  0      
  2  4  1  0      
  4  5  1  0      
  4  6  1  0      
  6  7  1  0      
  7  8  1  0      
  8  9  1  0      
M  END
$$$$
