sidechains.sdf
  ChemDraw12171923412D

  8  8  0  0  0  0  0  0  0  0999 V2000
   -0.7145   -0.4125    0.0000 C   0  0  0  0  0  0  0  0  0  0  0  0
   -0.0000   -0.8250    0.0000 C   0  0  0  0  0  0  0  0  0  0  0  0
    0.7145   -0.4125    0.0000 C   0  0  0  0  0  0  0  0  0  0  0  0
    0.7145    0.4125    0.0000 C   0  0  0  0  0  0  0  0  0  0  0  0
   -0.0000    0.8250    0.0000 C   0  0  0  0  0  0  0  0  0  0  0  0
   -0.7145    0.4125    0.0000 C   0  0  0  0  0  0  0  0  0  0  0  0
    1.4289    0.8250    0.0000 O   0  0  0  0  0  0  0  0  0  0  0  0
   -1.4289   -0.8250    0.0000 C   0  0  0  0  0  0  0  0  0  0  0  0
  1  2  2  0      
  2  3  1  0      
  3  4  2  0      
  4  5  1  0      
  5  6  2  0      
  6  1  1  0      
  4  7  1  0      
  1  8  1  0      
M  END
$$$$
sidechains.sdf
  ChemDraw12171923412D

  6  6  0  0  0  0  0  0  0  0999 V2000
    0.2426    0.0507    0.0000 C   0  0  0  0  0  0  0  0  0  0  0  0
   -0.3094    0.6638    0.0000 C   0  0  0  0  0  0  0  0  0  0  0  0
   -1.0631    0.3282    0.0000 C   0  0  0  0  0  0  0  0  0  0  0  0
   -0.9769   -0.4923    0.0000 C   0  0  0  0  0  0  0  0  0  0  0  0
   -0.1699   -0.6638    0.0000 N   0  0  0  0  0  0  0  0  0  0  0  0
    1.0631    0.1369    0.0000 C   0  0  0  0  0  0  0  0  0  0  0  0
  1  2  2  0      
  2  3  1  0      
  3  4  2  0      
  4  5  1  0      
  5  1  1  0      
  1  6  1  0      
M  END
$$$$
sidechains.sdf
  ChemDraw12171923412D

  6  6  0  0  0  0  0  0  0  0999 V2000
    0.5275   -0.3010    0.0000 N   0  0  0  0  0  0  0  0  0  0  0  0
    0.7825    0.4835    0.0000 C   0  0  0  0  0  0  0  0  0  0  0  0
    0.1151    0.9685    0.0000 N   0  0  0  0  0  0  0  0  0  0  0  0
   -0.5524    0.4836    0.0000 C   0  0  0  0  0  0  0  0  0  0  0  0
   -0.2975   -0.3010    0.0000 C   0  0  0  0  0  0  0  0  0  0  0  0
   -0.7825   -0.9685    0.0000 C   0  0  0  0  0  0  0  0  0  0  0  0
  2  3  1  0      
  4  5  2  0      
  1  2  2  0      
  4  3  1  0      
  5  1  1  0      
  5  6  1  0      
M  END
$$$$
sidechains.sdf
  ChemDraw12171923412D

 10 11  0  0  0  0  0  0  0  0999 V2000
    1.5188    0.6317    0.0000 C   0  0  0  0  0  0  0  0  0  0  0  0
    0.9057    1.1837    0.0000 C   0  0  0  0  0  0  0  0  0  0  0  0
    0.1210    0.9289    0.0000 C   0  0  0  0  0  0  0  0  0  0  0  0
   -0.0506    0.1220    0.0000 C   0  0  0  0  0  0  0  0  0  0  0  0
    0.5625   -0.4301    0.0000 C   0  0  0  0  0  0  0  0  0  0  0  0
    1.3472   -0.1752    0.0000 C   0  0  0  0  0  0  0  0  0  0  0  0
   -0.7650   -0.2905    0.0000 C   0  0  0  0  0  0  0  0  0  0  0  0
   -0.5936   -1.0975    0.0000 C   0  0  0  0  0  0  0  0  0  0  0  0
    0.2269   -1.1837    0.0000 N   0  0  0  0  0  0  0  0  0  0  0  0
   -1.5188    0.0451    0.0000 C   0  0  0  0  0  0  0  0  0  0  0  0
  1  2  2  0      
  2  3  1  0      
  3  4  2  0      
  4  5  1  0      
  5  6  2  0      
  6  1  1  0      
  4  7  1  0      
  7  8  2  0      
  8  9  1  0      
  9  5  1  0      
  7 10  1  0      
M  END
$$$$
sidechains.sdf
  ChemDraw12171923412D

 10 11  0  0  0  0  0  0  0  0999 V2000
   -1.7618   -0.4125    0.0000 C   0  0  0  0  0  0  0  0  0  0  0  0
   -1.7618    0.4125    0.0000 C   0  0  0  0  0  0  0  0  0  0  0  0
   -1.0473    0.8250    0.0000 C   0  0  0  0  0  0  0  0  0  0  0  0
   -0.3328    0.4125    0.0000 C   0  0  0  0  0  0  0  0  0  0  0  0
   -0.3328   -0.4125    0.0000 C   0  0  0  0  0  0  0  0  0  0  0  0
   -1.0473   -0.8250    0.0000 C   0  0  0  0  0  0  0  0  0  0  0  0
    0.4518    0.6674    0.0000 C   0  0  0  0  0  0  0  0  0  0  0  0
    0.9367    0.0000    0.0000 N   0  0  0  0  0  0  0  0  0  0  0  0
    0.4518   -0.6674    0.0000 C   0  0  0  0  0  0  0  0  0  0  0  0
    1.7618    0.0000    0.0000 C   0  0  0  0  0  0  0  0  0  0  0  0
  1  2  1  0      
  2  3  2  0      
  3  4  1  0      
  4  5  1  0      
  5  6  1  0      
  6  1  2  0      
  4  7  2  0      
  7  8  1  0      
  8  9  1  0      
  9  5  2  0      
  8 10  1  0      
M  END
$$$$
sidechains.sdf
  ChemDraw12171923412D

  6  6  0  0  0  0  0  0  0  0999 V2000
   -0.6529    0.7051    0.0000 C   0  0  0  0  0  0  0  0  0  0  0  0
   -0.5666   -0.1154    0.0000 O   0  0  0  0  0  0  0  0  0  0  0  0
    0.2404   -0.2869    0.0000 C   0  0  0  0  0  0  0  0  0  0  0  0
    0.6529    0.4275    0.0000 C   0  0  0  0  0  0  0  0  0  0  0  0
    0.1008    1.0406    0.0000 C   0  0  0  0  0  0  0  0  0  0  0  0
    0.5759   -1.0406    0.0000 C   0  0  0  0  0  0  0  0  0  0  0  0
  1  2  1  0      
  2  3  1  0      
  3  4  2  0      
  4  5  1  0      
  5  1  2  0      
  3  6  1  0      
M  END
$$$$
sidechains.sdf
  ChemDraw12171923412D

  6  6  0  0  0  0  0  0  0  0999 V2000
   -0.6529    0.7050    0.0000 C   0  0  0  0  0  0  0  0  0  0  0  0
   -0.5666   -0.1155    0.0000 S   0  0  0  0  0  0  0  0  0  0  0  0
    0.2404   -0.2869    0.0000 C   0  0  0  0  0  0  0  0  0  0  0  0
    0.6529    0.4276    0.0000 C   0  0  0  0  0  0  0  0  0  0  0  0
    0.1007    1.0406    0.0000 C   0  0  0  0  0  0  0  0  0  0  0  0
    0.5760   -1.0406    0.0000 C   0  0  0  0  0  0  0  0  0  0  0  0
  1  2  1  0      
  2  3  1  0      
  3  4  2  0      
  4  5  1  0      
  5  1  2  0      
  3  6  1  0      
M  END
$$$$
sidechains.sdf
  ChemDraw12171923412D

  6  6  0  0  0  0  0  0  0  0999 V2000
    0.4836   -0.7825    0.0000 N   0  0  0  0  0  0  0  0  0  0  0  0
    0.9685   -0.1150    0.0000 C   0  0  0  0  0  0  0  0  0  0  0  0
    0.4836    0.5524    0.0000 C   0  0  0  0  0  0  0  0  0  0  0  0
   -0.3010    0.2975    0.0000 C   0  0  0  0  0  0  0  0  0  0  0  0
   -0.3010   -0.5275    0.0000 S   0  0  0  0  0  0  0  0  0  0  0  0
   -0.9685    0.7825    0.0000 C   0  0  0  0  0  0  0  0  0  0  0  0
  1  2  2  0      
  2  3  1  0      
  3  4  2  0      
  4  5  1  0      
  5  1  1  0      
  4  6  1  0      
M  END
$$$$
sidechains.sdf
  ChemDraw12171923412D

 11 12  0  0  0  0  0  0  0  0999 V2000
   -0.9920    0.7260    0.0000 C   0  0  0  0  0  0  0  0  0  0  0  0
   -0.9920   -0.0990    0.0000 O   0  0  0  0  0  0  0  0  0  0  0  0
   -0.2775   -0.5115    0.0000 C   0  0  0  0  0  0  0  0  0  0  0  0
    0.4369   -0.0990    0.0000 C   0  0  0  0  0  0  0  0  0  0  0  0
    0.4369    0.7260    0.0000 C   0  0  0  0  0  0  0  0  0  0  0  0
   -0.2775    1.1385    0.0000 N   0  0  0  0  0  0  0  0  0  0  0  0
    1.2216   -0.3539    0.0000 C   0  0  0  0  0  0  0  0  0  0  0  0
    1.7064    0.3135    0.0000 C   0  0  0  0  0  0  0  0  0  0  0  0
    1.2216    0.9810    0.0000 N   0  0  0  0  0  0  0  0  0  0  0  0
   -1.7064    1.1385    0.0000 O   0  0  0  0  0  0  0  0  0  0  0  0
    1.4765   -1.1385    0.0000 C   0  0  0  0  0  0  0  0  0  0  0  0
  1  2  1  0      
  2  3  1  0      
  3  4  2  0      
  4  5  1  0      
  5  6  2  0      
  6  1  1  0      
  4  7  1  0      
  7  8  2  0      
  8  9  1  0      
  9  5  1  0      
  1 10  2  0      
  7 11  1  0      
M  END
$$$$
sidechains.sdf
  ChemDraw12171923412D

 11 12  0  0  0  0  0  0  0  0999 V2000
   -1.3492    0.8250    0.0000 C   0  0  0  0  0  0  0  0  0  0  0  0
   -1.3492    0.0000    0.0000 N   0  0  0  0  0  0  0  0  0  0  0  0
   -0.6348   -0.4125    0.0000 C   0  0  0  0  0  0  0  0  0  0  0  0
    0.0797    0.0000    0.0000 C   0  0  0  0  0  0  0  0  0  0  0  0
    0.0797    0.8250    0.0000 C   0  0  0  0  0  0  0  0  0  0  0  0
   -0.6348    1.2375    0.0000 N   0  0  0  0  0  0  0  0  0  0  0  0
    0.8643   -0.2549    0.0000 C   0  0  0  0  0  0  0  0  0  0  0  0
    1.3492    0.4125    0.0000 C   0  0  0  0  0  0  0  0  0  0  0  0
    0.8643    1.0799    0.0000 N   0  0  0  0  0  0  0  0  0  0  0  0
   -0.6348   -1.2375    0.0000 O   0  0  0  0  0  0  0  0  0  0  0  0
    1.1193   -1.0396    0.0000 C   0  0  0  0  0  0  0  0  0  0  0  0
  2  3  1  0      
  3  4  1  0      
  4  5  2  0      
  5  6  1  0      
  4  7  1  0      
  7  8  2  0      
  8  9  1  0      
  9  5  1  0      
  1  6  2  0      
  1  2  1  0      
  3 10  2  0      
  7 11  1  0      
M  END
$$$$
sidechains.sdf
  ChemDraw12171923412D

 12 13  0  0  0  0  0  0  0  0999 V2000
   -1.4289    0.4125    0.0000 C   0  0  0  0  0  0  0  0  0  0  0  0
   -0.7145    0.8250    0.0000 C   0  0  0  0  0  0  0  0  0  0  0  0
   -0.0000    0.4125    0.0000 C   0  0  0  0  0  0  0  0  0  0  0  0
   -0.0000   -0.4125    0.0000 N   0  0  0  0  0  0  0  0  0  0  0  0
    0.7145    0.8250    0.0000 C   0  0  0  0  0  0  0  0  0  0  0  0
    1.4289    0.4125    0.0000 C   0  0  0  0  0  0  0  0  0  0  0  0
    1.4289   -0.4125    0.0000 C   0  0  0  0  0  0  0  0  0  0  0  0
    0.7145   -0.8250    0.0000 C   0  0  0  0  0  0  0  0  0  0  0  0
    0.7145   -1.6500    0.0000 O   0  0  0  0  0  0  0  0  0  0  0  0
   -1.4289   -0.4125    0.0000 C   0  0  0  0  0  0  0  0  0  0  0  0
   -0.7145   -0.8250    0.0000 C   0  0  0  0  0  0  0  0  0  0  0  0
    0.7145    1.6500    0.0000 C   0  0  0  0  0  0  0  0  0  0  0  0
  1  2  2  0      
  3  4  1  0      
  3  5  2  0      
  6  7  2  0      
  8  4  1  0      
  8  9  2  0      
  2  3  1  0      
  1 10  1  0      
  4 11  1  0      
 10 11  2  0      
  6  5  1  0      
  7  8  1  0      
  5 12  1  0      
M  END
$$$$
sidechains.sdf
  ChemDraw12171923412D

  9 10  0  0  0  0  0  0  0  0999 V2000
   -0.7847    1.0597    0.0000 C   0  0  0  0  0  0  0  0  0  0  0  0
   -1.2695    0.3924    0.0000 C   0  0  0  0  0  0  0  0  0  0  0  0
   -0.7846   -0.2751    0.0000 S   0  0  0  0  0  0  0  0  0  0  0  0
   -0.0000   -0.0202    0.0000 C   0  0  0  0  0  0  0  0  0  0  0  0
   -0.0000    0.8048    0.0000 C   0  0  0  0  0  0  0  0  0  0  0  0
    0.7847   -0.2751    0.0000 C   0  0  0  0  0  0  0  0  0  0  0  0
    1.2695    0.3923    0.0000 C   0  0  0  0  0  0  0  0  0  0  0  0
    0.7846    1.0597    0.0000 S   0  0  0  0  0  0  0  0  0  0  0  0
    1.0396   -1.0597    0.0000 C   0  0  0  0  0  0  0  0  0  0  0  0
  1  2  2  0      
  2  3  1  0      
  3  4  1  0      
  4  5  2  0      
  5  1  1  0      
  4  6  1  0      
  6  7  2  0      
  7  8  1  0      
  8  5  1  0      
  6  9  1  0      
M  END
$$$$
sidechains.sdf
  ChemDraw12171923412D

  9 10  0  0  0  0  0  0  0  0999 V2000
   -0.7846    1.0597    0.0000 C   0  0  0  0  0  0  0  0  0  0  0  0
   -1.2695    0.3923    0.0000 C   0  0  0  0  0  0  0  0  0  0  0  0
   -0.7846   -0.2751    0.0000 C   0  0  0  0  0  0  0  0  0  0  0  0
    0.0000   -0.0202    0.0000 C   0  0  0  0  0  0  0  0  0  0  0  0
    0.0000    0.8048    0.0000 N   0  0  0  0  0  0  0  0  0  0  0  0
    0.7846   -0.2751    0.0000 N   0  0  0  0  0  0  0  0  0  0  0  0
    1.2695    0.3924    0.0000 C   0  0  0  0  0  0  0  0  0  0  0  0
    0.7846    1.0598    0.0000 C   0  0  0  0  0  0  0  0  0  0  0  0
   -1.0396   -1.0598    0.0000 C   0  0  0  0  0  0  0  0  0  0  0  0
  1  2  2  0      
  2  3  1  0      
  3  4  2  0      
  4  5  1  0      
  5  1  1  0      
  6  7  1  0      
  7  8  2  0      
  8  5  1  0      
  4  6  1  0      
  3  9  1  0      
M  END
$$$$
sidechains.sdf
  ChemDraw12171923412D

  8  8  0  0  0  0  0  0  0  0999 V2000
   -0.0000   -0.8250    0.0000 C   0  0  0  0  0  0  0  0  0  0  0  0
    0.7145   -0.4125    0.0000 S   0  0  0  0  0  0  0  0  0  0  0  0
    0.7145    0.4125    0.0000 C   0  0  0  0  0  0  0  0  0  0  0  0
   -0.0000    0.8250    0.0000 C   0  0  0  0  0  0  0  0  0  0  0  0
   -0.7145    0.4125    0.0000 C   0  0  0  0  0  0  0  0  0  0  0  0
   -0.7145   -0.4125    0.0000 C   0  0  0  0  0  0  0  0  0  0  0  0
   -1.4289    0.8250    0.0000 O   0  0  0  0  0  0  0  0  0  0  0  0
    1.4289    0.8250    0.0000 C   0  0  0  0  0  0  0  0  0  0  0  0
  1  2  1  0      
  2  3  1  0      
  3  4  2  0      
  4  5  1  0      
  5  6  1  0      
  6  1  2  0      
  5  7  2  0      
  3  8  1  0      
M  END
$$$$
sidechains.sdf
  ChemDraw12171923412D

  9 10  0  0  0  0  0  0  0  0999 V2000
   -0.8570   -0.0001    0.0000 C   0  0  0  0  0  0  0  0  0  0  0  0
   -0.3720   -0.6676    0.0000 C   0  0  0  0  0  0  0  0  0  0  0  0
    0.4125   -0.4125    0.0000 C   0  0  0  0  0  0  0  0  0  0  0  0
    0.4125    0.4125    0.0000 C   0  0  0  0  0  0  0  0  0  0  0  0
   -0.3722    0.6674    0.0000 S   0  0  0  0  0  0  0  0  0  0  0  0
    1.1972   -0.6674    0.0000 C   0  0  0  0  0  0  0  0  0  0  0  0
    1.6820    0.0001    0.0000 C   0  0  0  0  0  0  0  0  0  0  0  0
    1.1970    0.6676    0.0000 O   0  0  0  0  0  0  0  0  0  0  0  0
   -1.6820   -0.0001    0.0000 C   0  0  0  0  0  0  0  0  0  0  0  0
  1  2  2  0      
  2  3  1  0      
  3  4  2  0      
  4  5  1  0      
  5  1  1  0      
  3  6  1  0      
  6  7  2  0      
  7  8  1  0      
  8  4  1  0      
  1  9  1  0      
M  END
$$$$
sidechains.sdf
  ChemDraw12171923412D

  9 10  0  0  0  0  0  0  0  0999 V2000
   -1.2695    0.3922    0.0000 C   0  0  0  0  0  0  0  0  0  0  0  0
   -0.7846   -0.2752    0.0000 C   0  0  0  0  0  0  0  0  0  0  0  0
    0.0000   -0.0202    0.0000 C   0  0  0  0  0  0  0  0  0  0  0  0
    0.0000    0.8047    0.0000 C   0  0  0  0  0  0  0  0  0  0  0  0
   -0.7847    1.0597    0.0000 O   0  0  0  0  0  0  0  0  0  0  0  0
    0.7847   -0.2752    0.0000 C   0  0  0  0  0  0  0  0  0  0  0  0
    1.2695    0.3923    0.0000 N   0  0  0  0  0  0  0  0  0  0  0  0
    0.7846    1.0598    0.0000 N   0  0  0  0  0  0  0  0  0  0  0  0
   -1.0395   -1.0598    0.0000 C   0  0  0  0  0  0  0  0  0  0  0  0
  1  2  2  0      
  2  3  1  0      
  3  4  1  0      
  4  5  1  0      
  5  1  1  0      
  3  6  2  0      
  6  7  1  0      
  7  8  1  0      
  8  4  2  0      
  2  9  1  0      
M  END
$$$$
sidechains.sdf
  ChemDraw12171923412D

 11 12  0  0  0  0  0  0  0  0999 V2000
   -0.9920    0.8250    0.0000 C   0  0  0  0  0  0  0  0  0  0  0  0
   -0.9920    0.0000    0.0000 C   0  0  0  0  0  0  0  0  0  0  0  0
   -0.2775   -0.4125    0.0000 C   0  0  0  0  0  0  0  0  0  0  0  0
    0.4369    0.0000    0.0000 C   0  0  0  0  0  0  0  0  0  0  0  0
    0.4369    0.8250    0.0000 C   0  0  0  0  0  0  0  0  0  0  0  0
   -0.2775    1.2375    0.0000 N   0  0  0  0  0  0  0  0  0  0  0  0
    1.2216   -0.2549    0.0000 C   0  0  0  0  0  0  0  0  0  0  0  0
    1.7065    0.4125    0.0000 C   0  0  0  0  0  0  0  0  0  0  0  0
    1.2216    1.0799    0.0000 S   0  0  0  0  0  0  0  0  0  0  0  0
   -0.2775   -1.2375    0.0000 O   0  0  0  0  0  0  0  0  0  0  0  0
   -1.7065    1.2375    0.0000 C   0  0  0  0  0  0  0  0  0  0  0  0
  3  4  1  0      
  5  6  1  0      
  4  7  1  0      
  7  8  2  0      
  8  9  1  0      
  9  5  1  0      
  3 10  2  0      
  1  2  2  0      
  5  4  2  0      
  2  3  1  0      
  1  6  1  0      
  1 11  1  0      
M  END
$$$$
sidechains.sdf
  ChemDraw12171923412D

 12 13  0  0  0  0  0  0  0  0999 V2000
   -1.7861    0.4125    0.0000 C   0  0  0  0  0  0  0  0  0  0  0  0
   -1.7861   -0.4125    0.0000 C   0  0  0  0  0  0  0  0  0  0  0  0
   -1.0717   -0.8250    0.0000 C   0  0  0  0  0  0  0  0  0  0  0  0
   -0.3572   -0.4125    0.0000 C   0  0  0  0  0  0  0  0  0  0  0  0
   -0.3572    0.4125    0.0000 C   0  0  0  0  0  0  0  0  0  0  0  0
   -1.0717    0.8250    0.0000 C   0  0  0  0  0  0  0  0  0  0  0  0
    0.3572   -0.8250    0.0000 C   0  0  0  0  0  0  0  0  0  0  0  0
    1.0717   -0.4125    0.0000 C   0  0  0  0  0  0  0  0  0  0  0  0
    1.0717    0.4125    0.0000 C   0  0  0  0  0  0  0  0  0  0  0  0
    0.3572    0.8250    0.0000 S   0  0  0  0  0  0  0  0  0  0  0  0
    1.7861    0.8250    0.0000 O   0  0  0  0  0  0  0  0  0  0  0  0
    1.7861   -0.8250    0.0000 C   0  0  0  0  0  0  0  0  0  0  0  0
  1  2  2  0      
  2  3  1  0      
  3  4  2  0      
  4  5  1  0      
  5  6  2  0      
  6  1  1  0      
  4  7  1  0      
  7  8  2  0      
  8  9  1  0      
  9 10  1  0      
 10  5  1  0      
  9 11  2  0      
  8 12  1  0      
M  END
$$$$
sidechains.sdf
  ChemDraw12171923412D

 11 12  0  0  0  0  0  0  0  0999 V2000
   -0.9920    0.7260    0.0000 C   0  0  0  0  0  0  0  0  0  0  0  0
   -0.9920   -0.0990    0.0000 N   0  0  0  0  0  0  0  0  0  0  0  0
   -0.2775   -0.5115    0.0000 C   0  0  0  0  0  0  0  0  0  0  0  0
    0.4369   -0.0990    0.0000 C   0  0  0  0  0  0  0  0  0  0  0  0
    0.4369    0.7260    0.0000 C   0  0  0  0  0  0  0  0  0  0  0  0
   -0.2775    1.1385    0.0000 N   0  0  0  0  0  0  0  0  0  0  0  0
    1.2216   -0.3539    0.0000 C   0  0  0  0  0  0  0  0  0  0  0  0
    1.7064    0.3135    0.0000 C   0  0  0  0  0  0  0  0  0  0  0  0
    1.2216    0.9810    0.0000 O   0  0  0  0  0  0  0  0  0  0  0  0
   -1.7064    1.1385    0.0000 O   0  0  0  0  0  0  0  0  0  0  0  0
    1.4765   -1.1385    0.0000 C   0  0  0  0  0  0  0  0  0  0  0  0
  1  2  1  0      
  2  3  1  0      
  3  4  2  0      
  4  5  1  0      
  5  6  2  0      
  6  1  1  0      
  4  7  1  0      
  7  8  2  0      
  8  9  1  0      
  9  5  1  0      
  1 10  2  0      
  7 11  1  0      
M  END
$$$$
sidechains.sdf
  ChemDraw12171923412D

 12 13  0  0  0  0  0  0  0  0999 V2000
   -1.7861   -0.8250    0.0000 C   0  0  0  0  0  0  0  0  0  0  0  0
   -1.7861    0.0000    0.0000 C   0  0  0  0  0  0  0  0  0  0  0  0
   -1.0717    0.4125    0.0000 C   0  0  0  0  0  0  0  0  0  0  0  0
   -0.3572    0.0000    0.0000 C   0  0  0  0  0  0  0  0  0  0  0  0
   -0.3572   -0.8250    0.0000 C   0  0  0  0  0  0  0  0  0  0  0  0
   -1.0717   -1.2375    0.0000 C   0  0  0  0  0  0  0  0  0  0  0  0
    0.3572    0.4125    0.0000 C   0  0  0  0  0  0  0  0  0  0  0  0
    1.0717    0.0000    0.0000 N   0  0  0  0  0  0  0  0  0  0  0  0
    1.0717   -0.8250    0.0000 C   0  0  0  0  0  0  0  0  0  0  0  0
    0.3572   -1.2375    0.0000 O   0  0  0  0  0  0  0  0  0  0  0  0
    0.3572    1.2375    0.0000 O   0  0  0  0  0  0  0  0  0  0  0  0
    1.7861   -1.2375    0.0000 C   0  0  0  0  0  0  0  0  0  0  0  0
  1  2  2  0      
  2  3  1  0      
  3  4  2  0      
  4  5  1  0      
  5  6  2  0      
  6  1  1  0      
  4  7  1  0      
  7  8  1  0      
  8  9  2  0      
  9 10  1  0      
 10  5  1  0      
  7 11  2  0      
  9 12  1  0      
M  END
$$$$
sidechains.sdf
  ChemDraw12171923412D

  9 10  0  0  0  0  0  0  0  0999 V2000
   -0.7846    0.2751    0.0000 C   0  0  0  0  0  0  0  0  0  0  0  0
   -1.2696   -0.3923    0.0000 C   0  0  0  0  0  0  0  0  0  0  0  0
   -0.7847   -1.0598    0.0000 S   0  0  0  0  0  0  0  0  0  0  0  0
    0.0000   -0.8048    0.0000 C   0  0  0  0  0  0  0  0  0  0  0  0
    0.0000    0.0202    0.0000 N   0  0  0  0  0  0  0  0  0  0  0  0
    0.7846   -1.0598    0.0000 C   0  0  0  0  0  0  0  0  0  0  0  0
    1.2696   -0.3922    0.0000 N   0  0  0  0  0  0  0  0  0  0  0  0
    0.7846    0.2751    0.0000 C   0  0  0  0  0  0  0  0  0  0  0  0
    1.0396    1.0598    0.0000 C   0  0  0  0  0  0  0  0  0  0  0  0
  1  2  2  0      
  2  3  1  0      
  3  4  1  0      
  4  5  1  0      
  5  1  1  0      
  4  6  2  0      
  6  7  1  0      
  7  8  2  0      
  8  5  1  0      
  8  9  1  0      
M  END
$$$$
sidechains.sdf
  ChemDraw12171923412D

  9 10  0  0  0  0  0  0  0  0999 V2000
   -0.7846    1.0597    0.0000 C   0  0  0  0  0  0  0  0  0  0  0  0
   -1.2695    0.3923    0.0000 C   0  0  0  0  0  0  0  0  0  0  0  0
   -0.7846   -0.2751    0.0000 C   0  0  0  0  0  0  0  0  0  0  0  0
    0.0000   -0.0202    0.0000 C   0  0  0  0  0  0  0  0  0  0  0  0
    0.0000    0.8048    0.0000 N   0  0  0  0  0  0  0  0  0  0  0  0
    0.7846   -0.2751    0.0000 S   0  0  0  0  0  0  0  0  0  0  0  0
    1.2695    0.3924    0.0000 C   0  0  0  0  0  0  0  0  0  0  0  0
    0.7846    1.0598    0.0000 C   0  0  0  0  0  0  0  0  0  0  0  0
   -1.0396   -1.0598    0.0000 C   0  0  0  0  0  0  0  0  0  0  0  0
  1  2  2  0      
  2  3  1  0      
  3  4  2  0      
  4  5  1  0      
  5  1  1  0      
  4  6  1  0      
  6  7  1  0      
  7  8  2  0      
  8  5  1  0      
  3  9  1  0      
M  END
$$$$
sidechains.sdf
  ChemDraw12171923412D

  9 10  0  0  0  0  0  0  0  0999 V2000
   -1.6820    0.0001    0.0000 N   0  0  0  0  0  0  0  0  0  0  0  0
   -1.1972   -0.6674    0.0000 N   0  0  0  0  0  0  0  0  0  0  0  0
   -0.4125   -0.4125    0.0000 C   0  0  0  0  0  0  0  0  0  0  0  0
   -0.4125    0.4125    0.0000 N   0  0  0  0  0  0  0  0  0  0  0  0
   -1.1971    0.6675    0.0000 C   0  0  0  0  0  0  0  0  0  0  0  0
    0.3721   -0.6675    0.0000 N   0  0  0  0  0  0  0  0  0  0  0  0
    0.8570   -0.0001    0.0000 C   0  0  0  0  0  0  0  0  0  0  0  0
    0.3721    0.6674    0.0000 N   0  0  0  0  0  0  0  0  0  0  0  0
    1.6820   -0.0001    0.0000 C   0  0  0  0  0  0  0  0  0  0  0  0
  1  2  1  0      
  2  3  1  0      
  3  4  1  0      
  4  5  1  0      
  5  1  2  0      
  3  6  2  0      
  6  7  1  0      
  7  8  2  0      
  8  4  1  0      
  7  9  1  0      
M  END
$$$$
sidechains.sdf
  ChemDraw12171923412D

 10 11  0  0  0  0  0  0  0  0999 V2000
    0.0797    0.0990    0.0000 C   0  0  0  0  0  0  0  0  0  0  0  0
    0.0797   -0.7260    0.0000 C   0  0  0  0  0  0  0  0  0  0  0  0
    0.8643    0.3539    0.0000 C   0  0  0  0  0  0  0  0  0  0  0  0
    1.3492   -0.3135    0.0000 S   0  0  0  0  0  0  0  0  0  0  0  0
    0.8643   -0.9810    0.0000 C   0  0  0  0  0  0  0  0  0  0  0  0
   -0.6348   -1.1385    0.0000 C   0  0  0  0  0  0  0  0  0  0  0  0
   -1.3492   -0.7260    0.0000 C   0  0  0  0  0  0  0  0  0  0  0  0
   -1.3492    0.0990    0.0000 C   0  0  0  0  0  0  0  0  0  0  0  0
   -0.6348    0.5115    0.0000 C   0  0  0  0  0  0  0  0  0  0  0  0
    1.1193    1.1385    0.0000 C   0  0  0  0  0  0  0  0  0  0  0  0
  1  2  1  0      
  1  3  2  0      
  3  4  1  0      
  4  5  1  0      
  5  2  2  0      
  2  6  1  0      
  6  7  2  0      
  7  8  1  0      
  8  9  2  0      
  9  1  1  0      
  3 10  1  0      
M  END
$$$$
sidechains.sdf
  ChemDraw12171923412D

  9 10  0  0  0  0  0  0  0  0999 V2000
   -0.7846    0.2751    0.0000 C   0  0  0  0  0  0  0  0  0  0  0  0
   -1.2696   -0.3923    0.0000 S   0  0  0  0  0  0  0  0  0  0  0  0
   -0.7846   -1.0597    0.0000 C   0  0  0  0  0  0  0  0  0  0  0  0
    0.0000   -0.8048    0.0000 C   0  0  0  0  0  0  0  0  0  0  0  0
    0.0000    0.0202    0.0000 C   0  0  0  0  0  0  0  0  0  0  0  0
    0.7846   -1.0597    0.0000 N   0  0  0  0  0  0  0  0  0  0  0  0
    1.2696   -0.3923    0.0000 C   0  0  0  0  0  0  0  0  0  0  0  0
    0.7846    0.2751    0.0000 N   0  0  0  0  0  0  0  0  0  0  0  0
    1.0396    1.0597    0.0000 C   0  0  0  0  0  0  0  0  0  0  0  0
  1  2  1  0      
  2  3  1  0      
  3  4  2  0      
  4  5  1  0      
  5  1  2  0      
  4  6  1  0      
  6  7  2  0      
  7  8  1  0      
  8  5  1  0      
  8  9  1  0      
M  END
$$$$
sidechains.sdf
  ChemDraw12171923412D

  8  8  0  0  0  0  0  0  0  0999 V2000
   -0.0000   -0.8250    0.0000 C   0  0  0  0  0  0  0  0  0  0  0  0
    0.7145   -0.4125    0.0000 S   0  0  0  0  0  0  0  0  0  0  0  0
    0.7145    0.4125    0.0000 C   0  0  0  0  0  0  0  0  0  0  0  0
   -0.0000    0.8250    0.0000 C   0  0  0  0  0  0  0  0  0  0  0  0
   -0.7145    0.4125    0.0000 C   0  0  0  0  0  0  0  0  0  0  0  0
   -0.7145   -0.4125    0.0000 N   0  0  0  0  0  0  0  0  0  0  0  0
   -1.4289    0.8250    0.0000 O   0  0  0  0  0  0  0  0  0  0  0  0
    1.4289    0.8250    0.0000 C   0  0  0  0  0  0  0  0  0  0  0  0
  1  2  1  0      
  2  3  1  0      
  3  4  2  0      
  4  5  1  0      
  5  6  1  0      
  6  1  2  0      
  5  7  2  0      
  3  8  1  0      
M  END
$$$$
sidechains.sdf
  ChemDraw12171923412D

 12 13  0  0  0  0  0  0  0  0999 V2000
   -1.4289   -0.4125    0.0000 C   0  0  0  0  0  0  0  0  0  0  0  0
   -1.4289    0.4125    0.0000 C   0  0  0  0  0  0  0  0  0  0  0  0
   -0.7145    0.8250    0.0000 C   0  0  0  0  0  0  0  0  0  0  0  0
   -0.0000    0.4125    0.0000 C   0  0  0  0  0  0  0  0  0  0  0  0
   -0.0000   -0.4125    0.0000 C   0  0  0  0  0  0  0  0  0  0  0  0
   -0.7145   -0.8250    0.0000 C   0  0  0  0  0  0  0  0  0  0  0  0
    0.7145    0.8250    0.0000 C   0  0  0  0  0  0  0  0  0  0  0  0
    1.4289    0.4125    0.0000 N   0  0  0  0  0  0  0  0  0  0  0  0
    1.4289   -0.4125    0.0000 O   0  0  0  0  0  0  0  0  0  0  0  0
    0.7145   -0.8250    0.0000 C   0  0  0  0  0  0  0  0  0  0  0  0
    0.7145   -1.6500    0.0000 O   0  0  0  0  0  0  0  0  0  0  0  0
    0.7145    1.6500    0.0000 C   0  0  0  0  0  0  0  0  0  0  0  0
  1  2  2  0      
  2  3  1  0      
  3  4  2  0      
  4  5  1  0      
  5  6  2  0      
  6  1  1  0      
  4  7  1  0      
  7  8  2  0      
  8  9  1  0      
  9 10  1  0      
 10  5  1  0      
 10 11  2  0      
  7 12  1  0      
M  END
$$$$
sidechains.sdf
  ChemDraw12171923412D

  9 10  0  0  0  0  0  0  0  0999 V2000
   -1.2695    0.3922    0.0000 C   0  0  0  0  0  0  0  0  0  0  0  0
   -0.7846   -0.2753    0.0000 C   0  0  0  0  0  0  0  0  0  0  0  0
    0.0000   -0.0202    0.0000 C   0  0  0  0  0  0  0  0  0  0  0  0
    0.0000    0.8047    0.0000 C   0  0  0  0  0  0  0  0  0  0  0  0
   -0.7847    1.0597    0.0000 S   0  0  0  0  0  0  0  0  0  0  0  0
    0.7847   -0.2752    0.0000 C   0  0  0  0  0  0  0  0  0  0  0  0
    1.2695    0.3923    0.0000 S   0  0  0  0  0  0  0  0  0  0  0  0
    0.7846    1.0598    0.0000 N   0  0  0  0  0  0  0  0  0  0  0  0
    1.0397   -1.0598    0.0000 C   0  0  0  0  0  0  0  0  0  0  0  0
  1  2  2  0      
  2  3  1  0      
  3  4  1  0      
  4  5  1  0      
  5  1  1  0      
  3  6  2  0      
  6  7  1  0      
  7  8  1  0      
  8  4  2  0      
  6  9  1  0      
M  END
$$$$
sidechains.sdf
  ChemDraw12171923412D

 11 12  0  0  0  0  0  0  0  0999 V2000
    0.0797   -0.3135    0.0000 C   0  0  0  0  0  0  0  0  0  0  0  0
    0.0797    0.5115    0.0000 C   0  0  0  0  0  0  0  0  0  0  0  0
   -0.6348    0.9240    0.0000 C   0  0  0  0  0  0  0  0  0  0  0  0
   -1.3492    0.5115    0.0000 C   0  0  0  0  0  0  0  0  0  0  0  0
   -1.3492   -0.3135    0.0000 N   0  0  0  0  0  0  0  0  0  0  0  0
   -0.6348   -0.7260    0.0000 C   0  0  0  0  0  0  0  0  0  0  0  0
    0.8643   -0.5685    0.0000 N   0  0  0  0  0  0  0  0  0  0  0  0
    1.3492    0.0990    0.0000 C   0  0  0  0  0  0  0  0  0  0  0  0
    0.8643    0.7664    0.0000 N   0  0  0  0  0  0  0  0  0  0  0  0
   -0.6348   -1.5510    0.0000 O   0  0  0  0  0  0  0  0  0  0  0  0
    1.1193    1.5510    0.0000 C   0  0  0  0  0  0  0  0  0  0  0  0
  1  2  2  0      
  2  3  1  0      
  3  4  2  0      
  4  5  1  0      
  5  6  1  0      
  6  1  1  0      
  1  7  1  0      
  7  8  2  0      
  8  9  1  0      
  9  2  1  0      
  6 10  2  0      
  9 11  1  0      
M  END
$$$$
sidechains.sdf
  ChemDraw12171923412D

 10 11  0  0  0  0  0  0  0  0999 V2000
   -1.3493    0.8250    0.0000 C   0  0  0  0  0  0  0  0  0  0  0  0
   -1.3493    0.0000    0.0000 C   0  0  0  0  0  0  0  0  0  0  0  0
   -0.6348   -0.4125    0.0000 C   0  0  0  0  0  0  0  0  0  0  0  0
    0.0797    0.0000    0.0000 C   0  0  0  0  0  0  0  0  0  0  0  0
    0.0797    0.8250    0.0000 C   0  0  0  0  0  0  0  0  0  0  0  0
   -0.6348    1.2375    0.0000 C   0  0  0  0  0  0  0  0  0  0  0  0
    0.8643   -0.2549    0.0000 C   0  0  0  0  0  0  0  0  0  0  0  0
    1.3493    0.4125    0.0000 O   0  0  0  0  0  0  0  0  0  0  0  0
    0.8643    1.0799    0.0000 C   0  0  0  0  0  0  0  0  0  0  0  0
   -0.6348   -1.2375    0.0000 C   0  0  0  0  0  0  0  0  0  0  0  0
  1  2  1  0      
  2  3  2  0      
  3  4  1  0      
  4  5  1  0      
  5  6  1  0      
  6  1  2  0      
  4  7  2  0      
  7  8  1  0      
  8  9  1  0      
  9  5  2  0      
  3 10  1  0      
M  END
$$$$
sidechains.sdf
  ChemDraw12171923412D

 11 12  0  0  0  0  0  0  0  0999 V2000
   -1.3492    0.4125    0.0000 N   0  0  0  0  0  0  0  0  0  0  0  0
   -1.3492   -0.4125    0.0000 N   0  0  0  0  0  0  0  0  0  0  0  0
   -0.6348   -0.8250    0.0000 C   0  0  0  0  0  0  0  0  0  0  0  0
    0.0797   -0.4125    0.0000 C   0  0  0  0  0  0  0  0  0  0  0  0
    0.0797    0.4125    0.0000 C   0  0  0  0  0  0  0  0  0  0  0  0
   -0.6348    0.8250    0.0000 C   0  0  0  0  0  0  0  0  0  0  0  0
    0.8643   -0.6674    0.0000 C   0  0  0  0  0  0  0  0  0  0  0  0
    1.3492    0.0000    0.0000 O   0  0  0  0  0  0  0  0  0  0  0  0
    0.8643    0.6674    0.0000 N   0  0  0  0  0  0  0  0  0  0  0  0
   -0.6348    1.6500    0.0000 O   0  0  0  0  0  0  0  0  0  0  0  0
   -0.6348   -1.6500    0.0000 C   0  0  0  0  0  0  0  0  0  0  0  0
  1  2  1  0      
  2  3  2  0      
  3  4  1  0      
  4  5  1  0      
  5  6  1  0      
  6  1  1  0      
  4  7  2  0      
  7  8  1  0      
  8  9  1  0      
  9  5  2  0      
  6 10  2  0      
  3 11  1  0      
M  END
$$$$
sidechains.sdf
  ChemDraw12171923412D

 11 12  0  0  0  0  0  0  0  0999 V2000
   -1.3492    0.8250    0.0000 C   0  0  0  0  0  0  0  0  0  0  0  0
   -1.3492    0.0000    0.0000 C   0  0  0  0  0  0  0  0  0  0  0  0
   -0.6348   -0.4125    0.0000 C   0  0  0  0  0  0  0  0  0  0  0  0
    0.0797    0.0000    0.0000 N   0  0  0  0  0  0  0  0  0  0  0  0
    0.0797    0.8250    0.0000 C   0  0  0  0  0  0  0  0  0  0  0  0
   -0.6348    1.2375    0.0000 C   0  0  0  0  0  0  0  0  0  0  0  0
    0.8643   -0.2549    0.0000 C   0  0  0  0  0  0  0  0  0  0  0  0
    1.3492    0.4125    0.0000 N   0  0  0  0  0  0  0  0  0  0  0  0
    0.8643    1.0799    0.0000 N   0  0  0  0  0  0  0  0  0  0  0  0
    1.1193   -1.0396    0.0000 O   0  0  0  0  0  0  0  0  0  0  0  0
   -0.6348   -1.2375    0.0000 C   0  0  0  0  0  0  0  0  0  0  0  0
  1  2  1  0      
  2  3  2  0      
  3  4  1  0      
  4  5  1  0      
  5  6  1  0      
  6  1  2  0      
  4  7  1  0      
  7  8  1  0      
  8  9  1  0      
  9  5  2  0      
  7 10  2  0      
  3 11  1  0      
M  END
$$$$
sidechains.sdf
  ChemDraw12171923412D

 12 13  0  0  0  0  0  0  0  0999 V2000
   -1.7861   -0.8250    0.0000 C   0  0  0  0  0  0  0  0  0  0  0  0
   -1.7861    0.0000    0.0000 C   0  0  0  0  0  0  0  0  0  0  0  0
   -1.0717    0.4125    0.0000 C   0  0  0  0  0  0  0  0  0  0  0  0
   -0.3572    0.0000    0.0000 C   0  0  0  0  0  0  0  0  0  0  0  0
   -0.3572   -0.8250    0.0000 C   0  0  0  0  0  0  0  0  0  0  0  0
   -1.0717   -1.2375    0.0000 C   0  0  0  0  0  0  0  0  0  0  0  0
    0.3572    0.4125    0.0000 C   0  0  0  0  0  0  0  0  0  0  0  0
    1.0717    0.0000    0.0000 N   0  0  0  0  0  0  0  0  0  0  0  0
    1.0717   -0.8250    0.0000 C   0  0  0  0  0  0  0  0  0  0  0  0
    0.3572   -1.2375    0.0000 S   0  0  0  0  0  0  0  0  0  0  0  0
    0.3572    1.2375    0.0000 O   0  0  0  0  0  0  0  0  0  0  0  0
    1.7861   -1.2375    0.0000 C   0  0  0  0  0  0  0  0  0  0  0  0
  1  2  2  0      
  2  3  1  0      
  3  4  2  0      
  4  5  1  0      
  5  6  2  0      
  6  1  1  0      
  4  7  1  0      
  7  8  1  0      
  8  9  2  0      
  9 10  1  0      
 10  5  1  0      
  7 11  2  0      
  9 12  1  0      
M  END
$$$$
sidechains.sdf
  ChemDraw12171923412D

 11 12  0  0  0  0  0  0  0  0999 V2000
   -0.9920    0.8250    0.0000 C   0  0  0  0  0  0  0  0  0  0  0  0
   -0.9920    0.0000    0.0000 N   0  0  0  0  0  0  0  0  0  0  0  0
   -0.2775   -0.4125    0.0000 C   0  0  0  0  0  0  0  0  0  0  0  0
    0.4369    0.0000    0.0000 C   0  0  0  0  0  0  0  0  0  0  0  0
    0.4369    0.8250    0.0000 C   0  0  0  0  0  0  0  0  0  0  0  0
   -0.2775    1.2375    0.0000 N   0  0  0  0  0  0  0  0  0  0  0  0
    1.2216   -0.2549    0.0000 C   0  0  0  0  0  0  0  0  0  0  0  0
    1.7065    0.4125    0.0000 C   0  0  0  0  0  0  0  0  0  0  0  0
    1.2216    1.0799    0.0000 O   0  0  0  0  0  0  0  0  0  0  0  0
   -0.2775   -1.2375    0.0000 O   0  0  0  0  0  0  0  0  0  0  0  0
   -1.7065    1.2375    0.0000 C   0  0  0  0  0  0  0  0  0  0  0  0
  1  2  1  0      
  2  3  1  0      
  3  4  1  0      
  4  5  2  0      
  5  6  1  0      
  6  1  2  0      
  4  7  1  0      
  7  8  2  0      
  8  9  1  0      
  9  5  1  0      
  3 10  2  0      
  1 11  1  0      
M  END
$$$$
sidechains.sdf
  ChemDraw12171923412D

 11 12  0  0  0  0  0  0  0  0999 V2000
   -0.9920    0.8250    0.0000 C   0  0  0  0  0  0  0  0  0  0  0  0
   -0.9920    0.0000    0.0000 C   0  0  0  0  0  0  0  0  0  0  0  0
   -0.2775   -0.4125    0.0000 C   0  0  0  0  0  0  0  0  0  0  0  0
    0.4369    0.0000    0.0000 C   0  0  0  0  0  0  0  0  0  0  0  0
    0.4369    0.8250    0.0000 C   0  0  0  0  0  0  0  0  0  0  0  0
   -0.2775    1.2375    0.0000 N   0  0  0  0  0  0  0  0  0  0  0  0
    1.2216   -0.2549    0.0000 C   0  0  0  0  0  0  0  0  0  0  0  0
    1.7065    0.4125    0.0000 C   0  0  0  0  0  0  0  0  0  0  0  0
    1.2216    1.0799    0.0000 S   0  0  0  0  0  0  0  0  0  0  0  0
   -1.7065    1.2375    0.0000 O   0  0  0  0  0  0  0  0  0  0  0  0
   -0.2775   -1.2375    0.0000 C   0  0  0  0  0  0  0  0  0  0  0  0
  1  2  1  0      
  2  3  2  0      
  3  4  1  0      
  4  5  2  0      
  5  6  1  0      
  6  1  1  0      
  4  7  1  0      
  7  8  2  0      
  8  9  1  0      
  9  5  1  0      
  1 10  2  0      
  3 11  1  0      
M  END
$$$$
sidechains.sdf
  ChemDraw12171923412D

 11 12  0  0  0  0  0  0  0  0999 V2000
   -0.9920    0.8250    0.0000 C   0  0  0  0  0  0  0  0  0  0  0  0
   -0.9920    0.0000    0.0000 N   0  0  0  0  0  0  0  0  0  0  0  0
   -0.2775   -0.4125    0.0000 C   0  0  0  0  0  0  0  0  0  0  0  0
    0.4369    0.0000    0.0000 N   0  0  0  0  0  0  0  0  0  0  0  0
    0.4369    0.8250    0.0000 C   0  0  0  0  0  0  0  0  0  0  0  0
   -0.2775    1.2375    0.0000 C   0  0  0  0  0  0  0  0  0  0  0  0
    1.2216   -0.2549    0.0000 C   0  0  0  0  0  0  0  0  0  0  0  0
    1.7065    0.4125    0.0000 C   0  0  0  0  0  0  0  0  0  0  0  0
    1.2216    1.0799    0.0000 N   0  0  0  0  0  0  0  0  0  0  0  0
   -0.2775   -1.2375    0.0000 O   0  0  0  0  0  0  0  0  0  0  0  0
   -1.7065   -0.4125    0.0000 C   0  0  0  0  0  0  0  0  0  0  0  0
  1  2  1  0      
  2  3  1  0      
  3  4  1  0      
  4  5  1  0      
  5  6  1  0      
  6  1  2  0      
  4  7  1  0      
  7  8  2  0      
  8  9  1  0      
  9  5  2  0      
  3 10  2  0      
  2 11  1  0      
M  END
$$$$
sidechains.sdf
  ChemDraw12171923412D

  9 10  0  0  0  0  0  0  0  0999 V2000
   -0.0000    0.8048    0.0000 N   0  0  0  0  0  0  0  0  0  0  0  0
   -0.7846    1.0597    0.0000 C   0  0  0  0  0  0  0  0  0  0  0  0
   -1.2696    0.3923    0.0000 C   0  0  0  0  0  0  0  0  0  0  0  0
   -0.7846   -0.2751    0.0000 N   0  0  0  0  0  0  0  0  0  0  0  0
   -0.0000   -0.0202    0.0000 C   0  0  0  0  0  0  0  0  0  0  0  0
    0.7846   -0.2751    0.0000 C   0  0  0  0  0  0  0  0  0  0  0  0
    1.2696    0.3923    0.0000 C   0  0  0  0  0  0  0  0  0  0  0  0
    0.7846    1.0597    0.0000 N   0  0  0  0  0  0  0  0  0  0  0  0
   -1.0396   -1.0597    0.0000 C   0  0  0  0  0  0  0  0  0  0  0  0
  1  2  1  0      
  2  3  2  0      
  3  4  1  0      
  5  1  1  0      
  5  6  2  0      
  6  7  1  0      
  7  8  2  0      
  8  1  1  0      
  5  4  1  0      
  4  9  1  0      
M  END
$$$$
sidechains.sdf
  ChemDraw12171923412D

 11 12  0  0  0  0  0  0  0  0999 V2000
   -0.9920    0.8250    0.0000 C   0  0  0  0  0  0  0  0  0  0  0  0
   -0.9920    0.0000    0.0000 N   0  0  0  0  0  0  0  0  0  0  0  0
   -0.2775   -0.4125    0.0000 C   0  0  0  0  0  0  0  0  0  0  0  0
    0.4369    0.0000    0.0000 C   0  0  0  0  0  0  0  0  0  0  0  0
    0.4369    0.8250    0.0000 C   0  0  0  0  0  0  0  0  0  0  0  0
   -0.2775    1.2375    0.0000 C   0  0  0  0  0  0  0  0  0  0  0  0
    1.2216   -0.2549    0.0000 C   0  0  0  0  0  0  0  0  0  0  0  0
    1.7065    0.4125    0.0000 C   0  0  0  0  0  0  0  0  0  0  0  0
    1.2216    1.0799    0.0000 S   0  0  0  0  0  0  0  0  0  0  0  0
   -0.2775   -1.2375    0.0000 O   0  0  0  0  0  0  0  0  0  0  0  0
   -1.7065   -0.4125    0.0000 C   0  0  0  0  0  0  0  0  0  0  0  0
  1  2  1  0      
  2  3  1  0      
  3  4  1  0      
  4  5  2  0      
  5  6  1  0      
  6  1  2  0      
  4  7  1  0      
  7  8  2  0      
  8  9  1  0      
  9  5  1  0      
  3 10  2  0      
  2 11  1  0      
M  END
$$$$
sidechains.sdf
  ChemDraw12171923412D

 11 12  0  0  0  0  0  0  0  0999 V2000
   -0.3328    0.0000    0.0000 N   0  0  0  0  0  0  0  0  0  0  0  0
   -0.3328    0.8250    0.0000 C   0  0  0  0  0  0  0  0  0  0  0  0
   -1.0473    1.2375    0.0000 N   0  0  0  0  0  0  0  0  0  0  0  0
   -1.7617    0.8250    0.0000 C   0  0  0  0  0  0  0  0  0  0  0  0
   -1.7617    0.0000    0.0000 C   0  0  0  0  0  0  0  0  0  0  0  0
   -1.0473   -0.4125    0.0000 C   0  0  0  0  0  0  0  0  0  0  0  0
    0.4518   -0.2549    0.0000 N   0  0  0  0  0  0  0  0  0  0  0  0
    0.9367    0.4125    0.0000 C   0  0  0  0  0  0  0  0  0  0  0  0
    0.4518    1.0799    0.0000 N   0  0  0  0  0  0  0  0  0  0  0  0
   -1.0473   -1.2375    0.0000 O   0  0  0  0  0  0  0  0  0  0  0  0
    1.7617    0.4125    0.0000 C   0  0  0  0  0  0  0  0  0  0  0  0
  1  2  1  0      
  2  3  1  0      
  3  4  1  0      
  4  5  2  0      
  5  6  1  0      
  6  1  1  0      
  1  7  1  0      
  7  8  2  0      
  8  9  1  0      
  9  2  2  0      
  6 10  2  0      
  8 11  1  0      
M  END
$$$$
sidechains.sdf
  ChemDraw12171923412D

 11 12  0  0  0  0  0  0  0  0999 V2000
    0.0797   -0.4125    0.0000 N   0  0  0  0  0  0  0  0  0  0  0  0
    0.0797    0.4125    0.0000 C   0  0  0  0  0  0  0  0  0  0  0  0
   -0.6348    0.8250    0.0000 N   0  0  0  0  0  0  0  0  0  0  0  0
   -1.3492    0.4125    0.0000 C   0  0  0  0  0  0  0  0  0  0  0  0
   -1.3492   -0.4125    0.0000 C   0  0  0  0  0  0  0  0  0  0  0  0
   -0.6348   -0.8250    0.0000 C   0  0  0  0  0  0  0  0  0  0  0  0
    0.8643   -0.6674    0.0000 C   0  0  0  0  0  0  0  0  0  0  0  0
    1.3492    0.0000    0.0000 C   0  0  0  0  0  0  0  0  0  0  0  0
    0.8643    0.6674    0.0000 N   0  0  0  0  0  0  0  0  0  0  0  0
   -0.6348   -1.6500    0.0000 O   0  0  0  0  0  0  0  0  0  0  0  0
   -0.6348    1.6500    0.0000 C   0  0  0  0  0  0  0  0  0  0  0  0
  1  2  1  0      
  2  3  1  0      
  3  4  1  0      
  4  5  2  0      
  5  6  1  0      
  6  1  1  0      
  1  7  1  0      
  7  8  2  0      
  8  9  1  0      
  9  2  2  0      
  6 10  2  0      
  3 11  1  0      
M  END
$$$$
sidechains.sdf
  ChemDraw12171923412D

 12 13  0  0  0  0  0  0  0  0999 V2000
    1.7861   -0.8250    0.0000 C   0  0  0  0  0  0  0  0  0  0  0  0
    1.7861    0.0000    0.0000 C   0  0  0  0  0  0  0  0  0  0  0  0
    1.0717    0.4125    0.0000 C   0  0  0  0  0  0  0  0  0  0  0  0
    0.3572    0.0000    0.0000 C   0  0  0  0  0  0  0  0  0  0  0  0
    0.3572   -0.8250    0.0000 N   0  0  0  0  0  0  0  0  0  0  0  0
    1.0717   -1.2375    0.0000 C   0  0  0  0  0  0  0  0  0  0  0  0
   -0.3572    0.4125    0.0000 N   0  0  0  0  0  0  0  0  0  0  0  0
   -1.0717    0.0000    0.0000 C   0  0  0  0  0  0  0  0  0  0  0  0
   -1.0717   -0.8250    0.0000 C   0  0  0  0  0  0  0  0  0  0  0  0
   -0.3572   -1.2375    0.0000 C   0  0  0  0  0  0  0  0  0  0  0  0
   -1.7861    0.4125    0.0000 O   0  0  0  0  0  0  0  0  0  0  0  0
    1.0717    1.2375    0.0000 C   0  0  0  0  0  0  0  0  0  0  0  0
  1  2  1  0      
  2  3  2  0      
  3  4  1  0      
  4  5  1  0      
  5  6  1  0      
  6  1  2  0      
  4  7  2  0      
  7  8  1  0      
  8  9  1  0      
  9 10  2  0      
 10  5  1  0      
  8 11  2  0      
  3 12  1  0      
M  END
$$$$
sidechains.sdf
  ChemDraw12171923412D

 11 12  0  0  0  0  0  0  0  0999 V2000
   -1.3492    0.8250    0.0000 C   0  0  0  0  0  0  0  0  0  0  0  0
   -1.3492    0.0000    0.0000 C   0  0  0  0  0  0  0  0  0  0  0  0
   -0.6348   -0.4125    0.0000 C   0  0  0  0  0  0  0  0  0  0  0  0
    0.0797    0.0000    0.0000 N   0  0  0  0  0  0  0  0  0  0  0  0
    0.0797    0.8250    0.0000 C   0  0  0  0  0  0  0  0  0  0  0  0
   -0.6348    1.2375    0.0000 N   0  0  0  0  0  0  0  0  0  0  0  0
    0.8643   -0.2549    0.0000 C   0  0  0  0  0  0  0  0  0  0  0  0
    1.3492    0.4125    0.0000 N   0  0  0  0  0  0  0  0  0  0  0  0
    0.8643    1.0799    0.0000 N   0  0  0  0  0  0  0  0  0  0  0  0
   -0.6348   -1.2375    0.0000 O   0  0  0  0  0  0  0  0  0  0  0  0
    1.1193   -1.0396    0.0000 C   0  0  0  0  0  0  0  0  0  0  0  0
  3  4  1  0      
  4  5  1  0      
  4  7  1  0      
  7  8  2  0      
  8  9  1  0      
  9  5  2  0      
  3 10  2  0      
  1  2  2  0      
  6  5  1  0      
  2  3  1  0      
  1  6  1  0      
  7 11  1  0      
M  END
$$$$
sidechains.sdf
  ChemDraw12171923412D

 12 13  0  0  0  0  0  0  0  0999 V2000
    1.4289   -0.4125    0.0000 C   0  0  0  0  0  0  0  0  0  0  0  0
    1.4289    0.4125    0.0000 C   0  0  0  0  0  0  0  0  0  0  0  0
    0.7145    0.8250    0.0000 C   0  0  0  0  0  0  0  0  0  0  0  0
   -0.0000    0.4125    0.0000 C   0  0  0  0  0  0  0  0  0  0  0  0
   -0.0000   -0.4125    0.0000 N   0  0  0  0  0  0  0  0  0  0  0  0
    0.7145   -0.8250    0.0000 C   0  0  0  0  0  0  0  0  0  0  0  0
   -0.7145    0.8250    0.0000 N   0  0  0  0  0  0  0  0  0  0  0  0
   -1.4289    0.4125    0.0000 C   0  0  0  0  0  0  0  0  0  0  0  0
   -1.4289   -0.4125    0.0000 C   0  0  0  0  0  0  0  0  0  0  0  0
   -0.7145   -0.8250    0.0000 C   0  0  0  0  0  0  0  0  0  0  0  0
    0.7145   -1.6500    0.0000 O   0  0  0  0  0  0  0  0  0  0  0  0
    0.7145    1.6500    0.0000 C   0  0  0  0  0  0  0  0  0  0  0  0
  1  2  2  0      
  2  3  1  0      
  3  4  2  0      
  4  5  1  0      
  5  6  1  0      
  6  1  1  0      
  4  7  1  0      
  7  8  2  0      
  8  9  1  0      
  9 10  2  0      
 10  5  1  0      
  6 11  2  0      
  3 12  1  0      
M  END
$$$$
sidechains.sdf
  ChemDraw12171923412D

  9 10  0  0  0  0  0  0  0  0999 V2000
   -1.2695   -0.3922    0.0000 C   0  0  0  0  0  0  0  0  0  0  0  0
   -0.7846   -1.0597    0.0000 N   0  0  0  0  0  0  0  0  0  0  0  0
    0.0000   -0.8048    0.0000 C   0  0  0  0  0  0  0  0  0  0  0  0
    0.0000    0.0202    0.0000 N   0  0  0  0  0  0  0  0  0  0  0  0
   -0.7846    0.2752    0.0000 C   0  0  0  0  0  0  0  0  0  0  0  0
    0.7846   -1.0597    0.0000 S   0  0  0  0  0  0  0  0  0  0  0  0
    1.2695   -0.3923    0.0000 N   0  0  0  0  0  0  0  0  0  0  0  0
    0.7847    0.2751    0.0000 C   0  0  0  0  0  0  0  0  0  0  0  0
    1.0396    1.0597    0.0000 C   0  0  0  0  0  0  0  0  0  0  0  0
  1  2  1  0      
  2  3  2  0      
  3  4  1  0      
  4  5  1  0      
  5  1  2  0      
  3  6  1  0      
  6  7  1  0      
  7  8  2  0      
  8  4  1  0      
  8  9  1  0      
M  END
$$$$
sidechains.sdf
  ChemDraw12171923412D

 11 12  0  0  0  0  0  0  0  0999 V2000
   -1.3492   -0.4125    0.0000 N   0  0  0  0  0  0  0  0  0  0  0  0
   -1.3492    0.4125    0.0000 N   0  0  0  0  0  0  0  0  0  0  0  0
   -0.6348    0.8250    0.0000 C   0  0  0  0  0  0  0  0  0  0  0  0
    0.0797    0.4125    0.0000 C   0  0  0  0  0  0  0  0  0  0  0  0
    0.0797   -0.4125    0.0000 C   0  0  0  0  0  0  0  0  0  0  0  0
   -0.6348   -0.8250    0.0000 C   0  0  0  0  0  0  0  0  0  0  0  0
    0.8643    0.6674    0.0000 N   0  0  0  0  0  0  0  0  0  0  0  0
    1.3492    0.0000    0.0000 C   0  0  0  0  0  0  0  0  0  0  0  0
    0.8643   -0.6674    0.0000 C   0  0  0  0  0  0  0  0  0  0  0  0
   -0.6348    1.6500    0.0000 O   0  0  0  0  0  0  0  0  0  0  0  0
   -0.6348   -1.6500    0.0000 C   0  0  0  0  0  0  0  0  0  0  0  0
  1  2  1  0      
  2  3  1  0      
  3  4  1  0      
  4  5  2  0      
  5  6  1  0      
  6  1  2  0      
  4  7  1  0      
  7  8  1  0      
  8  9  2  0      
  9  5  1  0      
  3 10  2  0      
  6 11  1  0      
M  END
$$$$
sidechains.sdf
  ChemDraw12171923412D

 11 12  0  0  0  0  0  0  0  0999 V2000
   -0.9920    0.0000    0.0000 C   0  0  0  0  0  0  0  0  0  0  0  0
   -0.9920   -0.8250    0.0000 C   0  0  0  0  0  0  0  0  0  0  0  0
   -0.2775   -1.2375    0.0000 N   0  0  0  0  0  0  0  0  0  0  0  0
    0.4369   -0.8250    0.0000 C   0  0  0  0  0  0  0  0  0  0  0  0
    0.4369    0.0000    0.0000 C   0  0  0  0  0  0  0  0  0  0  0  0
   -0.2775    0.4125    0.0000 C   0  0  0  0  0  0  0  0  0  0  0  0
    1.2216   -1.0799    0.0000 C   0  0  0  0  0  0  0  0  0  0  0  0
    1.7065   -0.4125    0.0000 C   0  0  0  0  0  0  0  0  0  0  0  0
    1.2216    0.2549    0.0000 S   0  0  0  0  0  0  0  0  0  0  0  0
   -0.2775    1.2375    0.0000 O   0  0  0  0  0  0  0  0  0  0  0  0
   -1.7065   -1.2375    0.0000 C   0  0  0  0  0  0  0  0  0  0  0  0
  2  3  2  0      
  3  4  1  0      
  4  5  2  0      
  5  6  1  0      
  6  1  2  0      
  4  7  1  0      
  7  8  2  0      
  8  9  1  0      
  9  5  1  0      
 10  6  1  0      
  1  2  1  0      
  2 11  1  0      
M  END
$$$$
sidechains.sdf
  ChemDraw12171923412D

  9 10  0  0  0  0  0  0  0  0999 V2000
   -0.7846    1.0598    0.0000 S   0  0  0  0  0  0  0  0  0  0  0  0
   -1.2695    0.3924    0.0000 C   0  0  0  0  0  0  0  0  0  0  0  0
   -0.7846   -0.2751    0.0000 C   0  0  0  0  0  0  0  0  0  0  0  0
    0.0000   -0.0202    0.0000 C   0  0  0  0  0  0  0  0  0  0  0  0
    0.0000    0.8048    0.0000 C   0  0  0  0  0  0  0  0  0  0  0  0
    0.7846   -0.2752    0.0000 C   0  0  0  0  0  0  0  0  0  0  0  0
    1.2695    0.3922    0.0000 N   0  0  0  0  0  0  0  0  0  0  0  0
    0.7846    1.0597    0.0000 S   0  0  0  0  0  0  0  0  0  0  0  0
    1.0394   -1.0598    0.0000 C   0  0  0  0  0  0  0  0  0  0  0  0
  1  2  1  0      
  2  3  2  0      
  3  4  1  0      
  4  5  2  0      
  5  1  1  0      
  4  6  1  0      
  6  7  2  0      
  7  8  1  0      
  8  5  1  0      
  6  9  1  0      
M  END
$$$$
sidechains.sdf
  ChemDraw12171923412D

  9 10  0  0  0  0  0  0  0  0999 V2000
   -1.6820    0.0001    0.0000 C   0  0  0  0  0  0  0  0  0  0  0  0
   -1.1970    0.6676    0.0000 C   0  0  0  0  0  0  0  0  0  0  0  0
   -0.4125    0.4125    0.0000 C   0  0  0  0  0  0  0  0  0  0  0  0
   -0.4125   -0.4125    0.0000 N   0  0  0  0  0  0  0  0  0  0  0  0
   -1.1972   -0.6674    0.0000 N   0  0  0  0  0  0  0  0  0  0  0  0
    0.3722    0.6674    0.0000 N   0  0  0  0  0  0  0  0  0  0  0  0
    0.8570   -0.0001    0.0000 C   0  0  0  0  0  0  0  0  0  0  0  0
    0.3720   -0.6676    0.0000 N   0  0  0  0  0  0  0  0  0  0  0  0
    1.6820   -0.0001    0.0000 C   0  0  0  0  0  0  0  0  0  0  0  0
  1  2  1  0      
  2  3  2  0      
  3  4  1  0      
  4  5  1  0      
  5  1  2  0      
  3  6  1  0      
  6  7  1  0      
  7  8  2  0      
  8  4  1  0      
  7  9  1  0      
M  END
$$$$
sidechains.sdf
  ChemDraw12171923412D

 11 12  0  0  0  0  0  0  0  0999 V2000
   -0.9920    0.7260    0.0000 N   0  0  0  0  0  0  0  0  0  0  0  0
   -0.9920   -0.0990    0.0000 C   0  0  0  0  0  0  0  0  0  0  0  0
   -0.2775   -0.5115    0.0000 N   0  0  0  0  0  0  0  0  0  0  0  0
    0.4369   -0.0990    0.0000 C   0  0  0  0  0  0  0  0  0  0  0  0
    0.4369    0.7260    0.0000 C   0  0  0  0  0  0  0  0  0  0  0  0
   -0.2775    1.1385    0.0000 C   0  0  0  0  0  0  0  0  0  0  0  0
    1.2216   -0.3539    0.0000 C   0  0  0  0  0  0  0  0  0  0  0  0
    1.7064    0.3135    0.0000 N   0  0  0  0  0  0  0  0  0  0  0  0
    1.2216    0.9810    0.0000 N   0  0  0  0  0  0  0  0  0  0  0  0
   -1.7064   -0.5115    0.0000 O   0  0  0  0  0  0  0  0  0  0  0  0
    1.4765   -1.1385    0.0000 C   0  0  0  0  0  0  0  0  0  0  0  0
  1  2  1  0      
  2  3  1  0      
  3  4  1  0      
  4  5  1  0      
  5  6  1  0      
  6  1  2  0      
  4  7  2  0      
  7  8  1  0      
  8  9  1  0      
  9  5  2  0      
  2 10  2  0      
  7 11  1  0      
M  END
$$$$
sidechains.sdf
  ChemDraw12171923412D

 11 12  0  0  0  0  0  0  0  0999 V2000
   -0.9920    0.8250    0.0000 C   0  0  0  0  0  0  0  0  0  0  0  0
   -0.9920    0.0000    0.0000 O   0  0  0  0  0  0  0  0  0  0  0  0
   -0.2775   -0.4125    0.0000 C   0  0  0  0  0  0  0  0  0  0  0  0
    0.4369    0.0000    0.0000 C   0  0  0  0  0  0  0  0  0  0  0  0
    0.4369    0.8250    0.0000 C   0  0  0  0  0  0  0  0  0  0  0  0
   -0.2775    1.2375    0.0000 C   0  0  0  0  0  0  0  0  0  0  0  0
    1.2216   -0.2549    0.0000 C   0  0  0  0  0  0  0  0  0  0  0  0
    1.7065    0.4125    0.0000 C   0  0  0  0  0  0  0  0  0  0  0  0
    1.2216    1.0799    0.0000 O   0  0  0  0  0  0  0  0  0  0  0  0
   -0.2775   -1.2375    0.0000 O   0  0  0  0  0  0  0  0  0  0  0  0
   -1.7065    1.2375    0.0000 C   0  0  0  0  0  0  0  0  0  0  0  0
  1  2  1  0      
  2  3  1  0      
  3  4  1  0      
  4  5  2  0      
  5  6  1  0      
  6  1  2  0      
  4  7  1  0      
  7  8  2  0      
  8  9  1  0      
  9  5  1  0      
  3 10  2  0      
  1 11  1  0      
M  END
$$$$
sidechains.sdf
  ChemDraw12171923412D

 11 12  0  0  0  0  0  0  0  0999 V2000
    0.0797    0.4125    0.0000 N   0  0  0  0  0  0  0  0  0  0  0  0
    0.0797   -0.4125    0.0000 C   0  0  0  0  0  0  0  0  0  0  0  0
   -0.6348   -0.8250    0.0000 N   0  0  0  0  0  0  0  0  0  0  0  0
   -1.3492   -0.4125    0.0000 C   0  0  0  0  0  0  0  0  0  0  0  0
   -1.3492    0.4125    0.0000 C   0  0  0  0  0  0  0  0  0  0  0  0
   -0.6348    0.8250    0.0000 C   0  0  0  0  0  0  0  0  0  0  0  0
    0.8643    0.6674    0.0000 N   0  0  0  0  0  0  0  0  0  0  0  0
    1.3492    0.0000    0.0000 C   0  0  0  0  0  0  0  0  0  0  0  0
    0.8643   -0.6674    0.0000 C   0  0  0  0  0  0  0  0  0  0  0  0
   -0.6348    1.6500    0.0000 O   0  0  0  0  0  0  0  0  0  0  0  0
   -0.6348   -1.6500    0.0000 C   0  0  0  0  0  0  0  0  0  0  0  0
  2  3  1  0      
  4  5  2  0      
  6  1  1  0      
  1  7  1  0      
  7  8  2  0      
  8  9  1  0      
  9  2  2  0      
  6 10  2  0      
  1  2  1  0      
  6  5  1  0      
  4  3  1  0      
  3 11  1  0      
M  END
$$$$
sidechains.sdf
  ChemDraw12171923412D

 11 12  0  0  0  0  0  0  0  0999 V2000
   -0.9920    0.7260    0.0000 C   0  0  0  0  0  0  0  0  0  0  0  0
   -0.9920   -0.0990    0.0000 C   0  0  0  0  0  0  0  0  0  0  0  0
   -0.2775   -0.5115    0.0000 N   0  0  0  0  0  0  0  0  0  0  0  0
    0.4369   -0.0990    0.0000 C   0  0  0  0  0  0  0  0  0  0  0  0
    0.4369    0.7260    0.0000 N   0  0  0  0  0  0  0  0  0  0  0  0
   -0.2775    1.1385    0.0000 C   0  0  0  0  0  0  0  0  0  0  0  0
    1.2216   -0.3539    0.0000 C   0  0  0  0  0  0  0  0  0  0  0  0
    1.7064    0.3135    0.0000 C   0  0  0  0  0  0  0  0  0  0  0  0
    1.2216    0.9810    0.0000 N   0  0  0  0  0  0  0  0  0  0  0  0
   -1.7064   -0.5115    0.0000 O   0  0  0  0  0  0  0  0  0  0  0  0
    1.4765   -1.1385    0.0000 C   0  0  0  0  0  0  0  0  0  0  0  0
  1  2  1  0      
  2  3  1  0      
  3  4  1  0      
  4  5  1  0      
  5  6  1  0      
  6  1  2  0      
  4  7  2  0      
  7  8  1  0      
  8  9  2  0      
  9  5  1  0      
  2 10  2  0      
  7 11  1  0      
M  END
$$$$
sidechains.sdf
  ChemDraw12171923412D

 11 12  0  0  0  0  0  0  0  0999 V2000
   -0.9920    0.0000    0.0000 N   0  0  0  0  0  0  0  0  0  0  0  0
   -0.9920   -0.8250    0.0000 C   0  0  0  0  0  0  0  0  0  0  0  0
   -0.2775   -1.2375    0.0000 N   0  0  0  0  0  0  0  0  0  0  0  0
    0.4369   -0.8250    0.0000 N   0  0  0  0  0  0  0  0  0  0  0  0
    0.4369    0.0000    0.0000 C   0  0  0  0  0  0  0  0  0  0  0  0
   -0.2775    0.4125    0.0000 C   0  0  0  0  0  0  0  0  0  0  0  0
    1.2216   -1.0799    0.0000 C   0  0  0  0  0  0  0  0  0  0  0  0
    1.7065   -0.4125    0.0000 C   0  0  0  0  0  0  0  0  0  0  0  0
    1.2216    0.2549    0.0000 C   0  0  0  0  0  0  0  0  0  0  0  0
   -0.2775    1.2375    0.0000 O   0  0  0  0  0  0  0  0  0  0  0  0
   -1.7065   -1.2375    0.0000 C   0  0  0  0  0  0  0  0  0  0  0  0
  1  2  1  0      
  2  3  2  0      
  3  4  1  0      
  4  5  1  0      
  5  6  1  0      
  6  1  1  0      
  4  7  1  0      
  7  8  2  0      
  8  9  1  0      
  9  5  2  0      
  6 10  2  0      
  2 11  1  0      
M  END
$$$$
sidechains.sdf
  ChemDraw12171923412D

 11 12  0  0  0  0  0  0  0  0999 V2000
   -1.3492    0.4125    0.0000 N   0  0  0  0  0  0  0  0  0  0  0  0
   -1.3492   -0.4125    0.0000 N   0  0  0  0  0  0  0  0  0  0  0  0
   -0.6348   -0.8250    0.0000 C   0  0  0  0  0  0  0  0  0  0  0  0
    0.0797   -0.4125    0.0000 C   0  0  0  0  0  0  0  0  0  0  0  0
    0.0797    0.4125    0.0000 C   0  0  0  0  0  0  0  0  0  0  0  0
   -0.6348    0.8250    0.0000 C   0  0  0  0  0  0  0  0  0  0  0  0
    0.8643   -0.6674    0.0000 C   0  0  0  0  0  0  0  0  0  0  0  0
    1.3492    0.0000    0.0000 C   0  0  0  0  0  0  0  0  0  0  0  0
    0.8643    0.6674    0.0000 S   0  0  0  0  0  0  0  0  0  0  0  0
   -0.6348    1.6500    0.0000 O   0  0  0  0  0  0  0  0  0  0  0  0
   -0.6348   -1.6500    0.0000 C   0  0  0  0  0  0  0  0  0  0  0  0
  1  2  1  0      
  2  3  2  0      
  3  4  1  0      
  4  5  2  0      
  5  6  1  0      
  6  1  1  0      
  4  7  1  0      
  7  8  2  0      
  8  9  1  0      
  9  5  1  0      
  6 10  2  0      
  3 11  1  0      
M  END
$$$$
sidechains.sdf
  ChemDraw12171923412D

 13 14  0  0  0  0  0  0  0  0999 V2000
    1.7861   -0.8250    0.0000 C   0  0  0  0  0  0  0  0  0  0  0  0
    1.7861    0.0000    0.0000 O   0  0  0  0  0  0  0  0  0  0  0  0
    1.0717    0.4125    0.0000 C   0  0  0  0  0  0  0  0  0  0  0  0
    0.3572    0.0000    0.0000 C   0  0  0  0  0  0  0  0  0  0  0  0
    0.3572   -0.8250    0.0000 C   0  0  0  0  0  0  0  0  0  0  0  0
    1.0717   -1.2375    0.0000 C   0  0  0  0  0  0  0  0  0  0  0  0
   -0.3572    0.4125    0.0000 C   0  0  0  0  0  0  0  0  0  0  0  0
   -1.0717    0.0000    0.0000 N   0  0  0  0  0  0  0  0  0  0  0  0
   -1.0717   -0.8250    0.0000 C   0  0  0  0  0  0  0  0  0  0  0  0
   -0.3572   -1.2375    0.0000 O   0  0  0  0  0  0  0  0  0  0  0  0
    1.0717    1.2375    0.0000 O   0  0  0  0  0  0  0  0  0  0  0  0
   -0.3572    1.2375    0.0000 O   0  0  0  0  0  0  0  0  0  0  0  0
   -1.7861   -1.2375    0.0000 C   0  0  0  0  0  0  0  0  0  0  0  0
  1  2  1  0      
  2  3  1  0      
  3  4  1  0      
  4  5  2  0      
  5  6  1  0      
  6  1  2  0      
  4  7  1  0      
  7  8  1  0      
  8  9  2  0      
  9 10  1  0      
 10  5  1  0      
  3 11  2  0      
  7 12  2  0      
  9 13  1  0      
M  END
$$$$
sidechains.sdf
  ChemDraw12171923412D

  9 10  0  0  0  0  0  0  0  0999 V2000
   -1.2695    0.3924    0.0000 C   0  0  0  0  0  0  0  0  0  0  0  0
   -0.7846   -0.2751    0.0000 S   0  0  0  0  0  0  0  0  0  0  0  0
    0.0000   -0.0202    0.0000 C   0  0  0  0  0  0  0  0  0  0  0  0
    0.0000    0.8048    0.0000 C   0  0  0  0  0  0  0  0  0  0  0  0
   -0.7846    1.0598    0.0000 N   0  0  0  0  0  0  0  0  0  0  0  0
    0.7846   -0.2751    0.0000 C   0  0  0  0  0  0  0  0  0  0  0  0
    1.2695    0.3923    0.0000 N   0  0  0  0  0  0  0  0  0  0  0  0
    0.7846    1.0597    0.0000 N   0  0  0  0  0  0  0  0  0  0  0  0
    1.0396   -1.0598    0.0000 C   0  0  0  0  0  0  0  0  0  0  0  0
  1  2  1  0      
  2  3  1  0      
  3  4  2  0      
  4  5  1  0      
  5  1  2  0      
  3  6  1  0      
  6  7  2  0      
  7  8  1  0      
  8  4  1  0      
  6  9  1  0      
M  END
$$$$
sidechains.sdf
  ChemDraw12171923412D

 11 12  0  0  0  0  0  0  0  0999 V2000
   -1.7617    0.8250    0.0000 C   0  0  0  0  0  0  0  0  0  0  0  0
   -1.7617    0.0000    0.0000 C   0  0  0  0  0  0  0  0  0  0  0  0
   -1.0473   -0.4125    0.0000 C   0  0  0  0  0  0  0  0  0  0  0  0
   -0.3328    0.0000    0.0000 N   0  0  0  0  0  0  0  0  0  0  0  0
   -0.3328    0.8250    0.0000 C   0  0  0  0  0  0  0  0  0  0  0  0
   -1.0473    1.2375    0.0000 C   0  0  0  0  0  0  0  0  0  0  0  0
    0.4518   -0.2549    0.0000 N   0  0  0  0  0  0  0  0  0  0  0  0
    0.9367    0.4125    0.0000 C   0  0  0  0  0  0  0  0  0  0  0  0
    0.4518    1.0799    0.0000 N   0  0  0  0  0  0  0  0  0  0  0  0
   -1.0473   -1.2375    0.0000 O   0  0  0  0  0  0  0  0  0  0  0  0
    1.7617    0.4125    0.0000 C   0  0  0  0  0  0  0  0  0  0  0  0
  1  2  2  0      
  2  3  1  0      
  3  4  1  0      
  4  5  1  0      
  5  6  2  0      
  6  1  1  0      
  4  7  1  0      
  7  8  2  0      
  8  9  1  0      
  9  5  1  0      
  3 10  2  0      
  8 11  1  0      
M  END
$$$$
sidechains.sdf
  ChemDraw12171923412D

  9 10  0  0  0  0  0  0  0  0999 V2000
   -1.6820   -0.0001    0.0000 C   0  0  0  0  0  0  0  0  0  0  0  0
   -1.1970   -0.6676    0.0000 C   0  0  0  0  0  0  0  0  0  0  0  0
   -0.4125   -0.4125    0.0000 C   0  0  0  0  0  0  0  0  0  0  0  0
   -0.4125    0.4125    0.0000 N   0  0  0  0  0  0  0  0  0  0  0  0
   -1.1972    0.6674    0.0000 C   0  0  0  0  0  0  0  0  0  0  0  0
    0.3722   -0.6674    0.0000 N   0  0  0  0  0  0  0  0  0  0  0  0
    0.8570    0.0001    0.0000 C   0  0  0  0  0  0  0  0  0  0  0  0
    0.3720    0.6676    0.0000 N   0  0  0  0  0  0  0  0  0  0  0  0
    1.6820    0.0001    0.0000 C   0  0  0  0  0  0  0  0  0  0  0  0
  1  2  1  0      
  2  3  2  0      
  3  4  1  0      
  4  5  1  0      
  5  1  2  0      
  3  6  1  0      
  6  7  1  0      
  7  8  2  0      
  8  4  1  0      
  7  9  1  0      
M  END
$$$$
sidechains.sdf
  ChemDraw12171923412D

 11 12  0  0  0  0  0  0  0  0999 V2000
   -1.3492    0.8250    0.0000 C   0  0  0  0  0  0  0  0  0  0  0  0
   -1.3492    0.0000    0.0000 N   0  0  0  0  0  0  0  0  0  0  0  0
   -0.6348   -0.4125    0.0000 C   0  0  0  0  0  0  0  0  0  0  0  0
    0.0797    0.0000    0.0000 C   0  0  0  0  0  0  0  0  0  0  0  0
    0.0797    0.8250    0.0000 C   0  0  0  0  0  0  0  0  0  0  0  0
   -0.6348    1.2375    0.0000 C   0  0  0  0  0  0  0  0  0  0  0  0
    0.8643   -0.2549    0.0000 C   0  0  0  0  0  0  0  0  0  0  0  0
    1.3492    0.4125    0.0000 C   0  0  0  0  0  0  0  0  0  0  0  0
    0.8643    1.0799    0.0000 O   0  0  0  0  0  0  0  0  0  0  0  0
   -0.6348   -1.2375    0.0000 O   0  0  0  0  0  0  0  0  0  0  0  0
    1.1193   -1.0396    0.0000 C   0  0  0  0  0  0  0  0  0  0  0  0
  1  2  1  0      
  2  3  1  0      
  3  4  1  0      
  4  5  2  0      
  5  6  1  0      
  6  1  2  0      
  4  7  1  0      
  7  8  2  0      
  8  9  1  0      
  9  5  1  0      
  3 10  2  0      
  7 11  1  0      
M  END
$$$$
sidechains.sdf
  ChemDraw12171923412D

  8  8  0  0  0  0  0  0  0  0999 V2000
   -0.7145    0.4125    0.0000 C   0  0  0  0  0  0  0  0  0  0  0  0
   -0.7145   -0.4125    0.0000 O   0  0  0  0  0  0  0  0  0  0  0  0
   -0.0000   -0.8250    0.0000 C   0  0  0  0  0  0  0  0  0  0  0  0
    0.7145   -0.4125    0.0000 C   0  0  0  0  0  0  0  0  0  0  0  0
    0.7145    0.4125    0.0000 C   0  0  0  0  0  0  0  0  0  0  0  0
   -0.0000    0.8250    0.0000 N   0  0  0  0  0  0  0  0  0  0  0  0
    1.4289    0.8250    0.0000 O   0  0  0  0  0  0  0  0  0  0  0  0
   -1.4289    0.8250    0.0000 C   0  0  0  0  0  0  0  0  0  0  0  0
  1  2  1  0      
  2  3  1  0      
  3  4  2  0      
  4  5  1  0      
  5  6  1  0      
  6  1  2  0      
  5  7  2  0      
  1  8  1  0      
M  END
$$$$
sidechains.sdf
  ChemDraw12171923412D

 11 12  0  0  0  0  0  0  0  0999 V2000
   -1.3492    0.8250    0.0000 N   0  0  0  0  0  0  0  0  0  0  0  0
   -1.3492    0.0000    0.0000 N   0  0  0  0  0  0  0  0  0  0  0  0
   -0.6348   -0.4125    0.0000 C   0  0  0  0  0  0  0  0  0  0  0  0
    0.0797    0.0000    0.0000 C   0  0  0  0  0  0  0  0  0  0  0  0
    0.0797    0.8250    0.0000 C   0  0  0  0  0  0  0  0  0  0  0  0
   -0.6348    1.2375    0.0000 C   0  0  0  0  0  0  0  0  0  0  0  0
    0.8643   -0.2549    0.0000 C   0  0  0  0  0  0  0  0  0  0  0  0
    1.3492    0.4125    0.0000 N   0  0  0  0  0  0  0  0  0  0  0  0
    0.8643    1.0799    0.0000 O   0  0  0  0  0  0  0  0  0  0  0  0
   -0.6348   -1.2375    0.0000 O   0  0  0  0  0  0  0  0  0  0  0  0
    1.1193   -1.0396    0.0000 C   0  0  0  0  0  0  0  0  0  0  0  0
  1  2  1  0      
  2  3  1  0      
  3  4  1  0      
  4  5  2  0      
  5  6  1  0      
  6  1  2  0      
  4  7  1  0      
  7  8  2  0      
  8  9  1  0      
  9  5  1  0      
  3 10  2  0      
  7 11  1  0      
M  END
$$$$
sidechains.sdf
  ChemDraw12171923412D

  9 10  0  0  0  0  0  0  0  0999 V2000
   -1.1970    0.6676    0.0000 C   0  0  0  0  0  0  0  0  0  0  0  0
   -1.6820    0.0001    0.0000 C   0  0  0  0  0  0  0  0  0  0  0  0
   -1.1972   -0.6674    0.0000 S   0  0  0  0  0  0  0  0  0  0  0  0
   -0.4125   -0.4125    0.0000 C   0  0  0  0  0  0  0  0  0  0  0  0
   -0.4125    0.4125    0.0000 C   0  0  0  0  0  0  0  0  0  0  0  0
    0.3720   -0.6676    0.0000 N   0  0  0  0  0  0  0  0  0  0  0  0
    0.8570   -0.0001    0.0000 C   0  0  0  0  0  0  0  0  0  0  0  0
    0.3722    0.6674    0.0000 S   0  0  0  0  0  0  0  0  0  0  0  0
    1.6820   -0.0001    0.0000 C   0  0  0  0  0  0  0  0  0  0  0  0
  1  2  2  0      
  2  3  1  0      
  3  4  1  0      
  4  5  2  0      
  5  1  1  0      
  4  6  1  0      
  6  7  2  0      
  7  8  1  0      
  8  5  1  0      
  7  9  1  0      
M  END
$$$$
sidechains.sdf
  ChemDraw12171923412D

  9 10  0  0  0  0  0  0  0  0999 V2000
   -1.2695    0.3923    0.0000 S   0  0  0  0  0  0  0  0  0  0  0  0
   -0.7846   -0.2751    0.0000 C   0  0  0  0  0  0  0  0  0  0  0  0
   -0.0000   -0.0202    0.0000 C   0  0  0  0  0  0  0  0  0  0  0  0
   -0.0000    0.8047    0.0000 C   0  0  0  0  0  0  0  0  0  0  0  0
   -0.7845    1.0597    0.0000 C   0  0  0  0  0  0  0  0  0  0  0  0
    0.7845   -0.2752    0.0000 C   0  0  0  0  0  0  0  0  0  0  0  0
    1.2695    0.3923    0.0000 C   0  0  0  0  0  0  0  0  0  0  0  0
    0.7846    1.0596    0.0000 O   0  0  0  0  0  0  0  0  0  0  0  0
   -1.0396   -1.0597    0.0000 C   0  0  0  0  0  0  0  0  0  0  0  0
  1  2  1  0      
  2  3  2  0      
  3  4  1  0      
  4  5  2  0      
  5  1  1  0      
  3  6  1  0      
  6  7  2  0      
  7  8  1  0      
  8  4  1  0      
  2  9  1  0      
M  END
$$$$
sidechains.sdf
  ChemDraw12171923412D

  9 10  0  0  0  0  0  0  0  0999 V2000
   -1.2695    0.3923    0.0000 S   0  0  0  0  0  0  0  0  0  0  0  0
   -0.7846   -0.2751    0.0000 C   0  0  0  0  0  0  0  0  0  0  0  0
   -0.0000   -0.0202    0.0000 C   0  0  0  0  0  0  0  0  0  0  0  0
   -0.0000    0.8047    0.0000 C   0  0  0  0  0  0  0  0  0  0  0  0
   -0.7845    1.0597    0.0000 C   0  0  0  0  0  0  0  0  0  0  0  0
    0.7845   -0.2752    0.0000 C   0  0  0  0  0  0  0  0  0  0  0  0
    1.2695    0.3923    0.0000 C   0  0  0  0  0  0  0  0  0  0  0  0
    0.7846    1.0596    0.0000 S   0  0  0  0  0  0  0  0  0  0  0  0
   -1.0396   -1.0597    0.0000 C   0  0  0  0  0  0  0  0  0  0  0  0
  1  2  1  0      
  2  3  2  0      
  3  4  1  0      
  4  5  2  0      
  5  1  1  0      
  3  6  1  0      
  6  7  2  0      
  7  8  1  0      
  8  4  1  0      
  2  9  1  0      
M  END
$$$$
sidechains.sdf
  ChemDraw12171923412D

  9 10  0  0  0  0  0  0  0  0999 V2000
   -1.2695    0.3923    0.0000 C   0  0  0  0  0  0  0  0  0  0  0  0
   -0.7847   -0.2752    0.0000 C   0  0  0  0  0  0  0  0  0  0  0  0
    0.0000   -0.0202    0.0000 C   0  0  0  0  0  0  0  0  0  0  0  0
    0.0000    0.8047    0.0000 C   0  0  0  0  0  0  0  0  0  0  0  0
   -0.7846    1.0597    0.0000 O   0  0  0  0  0  0  0  0  0  0  0  0
    0.7846   -0.2752    0.0000 N   0  0  0  0  0  0  0  0  0  0  0  0
    1.2695    0.3922    0.0000 C   0  0  0  0  0  0  0  0  0  0  0  0
    0.7847    1.0598    0.0000 C   0  0  0  0  0  0  0  0  0  0  0  0
   -1.0397   -1.0598    0.0000 C   0  0  0  0  0  0  0  0  0  0  0  0
  1  2  2  0      
  2  3  1  0      
  3  4  2  0      
  4  5  1  0      
  5  1  1  0      
  3  6  1  0      
  6  7  1  0      
  7  8  2  0      
  8  4  1  0      
  2  9  1  0      
M  END
$$$$
sidechains.sdf
  ChemDraw12171923412D

 11 12  0  0  0  0  0  0  0  0999 V2000
   -0.9920    0.7260    0.0000 C   0  0  0  0  0  0  0  0  0  0  0  0
   -0.9920   -0.0990    0.0000 C   0  0  0  0  0  0  0  0  0  0  0  0
   -0.2775   -0.5115    0.0000 C   0  0  0  0  0  0  0  0  0  0  0  0
    0.4369   -0.0990    0.0000 C   0  0  0  0  0  0  0  0  0  0  0  0
    0.4369    0.7260    0.0000 C   0  0  0  0  0  0  0  0  0  0  0  0
   -0.2775    1.1385    0.0000 N   0  0  0  0  0  0  0  0  0  0  0  0
    1.2216   -0.3539    0.0000 C   0  0  0  0  0  0  0  0  0  0  0  0
    1.7064    0.3135    0.0000 C   0  0  0  0  0  0  0  0  0  0  0  0
    1.2216    0.9810    0.0000 S   0  0  0  0  0  0  0  0  0  0  0  0
   -1.7064    1.1385    0.0000 O   0  0  0  0  0  0  0  0  0  0  0  0
    1.4765   -1.1385    0.0000 C   0  0  0  0  0  0  0  0  0  0  0  0
  1  2  1  0      
  2  3  2  0      
  3  4  1  0      
  4  5  2  0      
  5  6  1  0      
  6  1  2  0      
  4  7  1  0      
  7  8  2  0      
  8  9  1  0      
  9  5  1  0      
  1 10  1  0      
  7 11  1  0      
M  END
$$$$
sidechains.sdf
  ChemDraw12171923412D

 10 11  0  0  0  0  0  0  0  0999 V2000
   -1.3492   -0.0990    0.0000 C   0  0  0  0  0  0  0  0  0  0  0  0
   -1.3492    0.7260    0.0000 C   0  0  0  0  0  0  0  0  0  0  0  0
   -0.6348    1.1385    0.0000 C   0  0  0  0  0  0  0  0  0  0  0  0
    0.0797    0.7260    0.0000 C   0  0  0  0  0  0  0  0  0  0  0  0
    0.0797   -0.0990    0.0000 C   0  0  0  0  0  0  0  0  0  0  0  0
   -0.6348   -0.5115    0.0000 C   0  0  0  0  0  0  0  0  0  0  0  0
    0.8643    0.9810    0.0000 O   0  0  0  0  0  0  0  0  0  0  0  0
    1.3492    0.3135    0.0000 C   0  0  0  0  0  0  0  0  0  0  0  0
    0.8643   -0.3539    0.0000 C   0  0  0  0  0  0  0  0  0  0  0  0
    1.1193   -1.1385    0.0000 C   0  0  0  0  0  0  0  0  0  0  0  0
  1  2  2  0      
  2  3  1  0      
  3  4  2  0      
  4  5  1  0      
  5  6  2  0      
  6  1  1  0      
  4  7  1  0      
  7  8  1  0      
  8  9  2  0      
  9  5  1  0      
  9 10  1  0      
M  END
$$$$
sidechains.sdf
  ChemDraw12171923412D

 10 11  0  0  0  0  0  0  0  0999 V2000
   -1.7618   -0.4125    0.0000 C   0  0  0  0  0  0  0  0  0  0  0  0
   -1.7618    0.4125    0.0000 C   0  0  0  0  0  0  0  0  0  0  0  0
   -1.0473    0.8250    0.0000 C   0  0  0  0  0  0  0  0  0  0  0  0
   -0.3328    0.4125    0.0000 C   0  0  0  0  0  0  0  0  0  0  0  0
   -0.3328   -0.4125    0.0000 C   0  0  0  0  0  0  0  0  0  0  0  0
   -1.0473   -0.8250    0.0000 C   0  0  0  0  0  0  0  0  0  0  0  0
    0.4518    0.6674    0.0000 S   0  0  0  0  0  0  0  0  0  0  0  0
    0.9367    0.0000    0.0000 C   0  0  0  0  0  0  0  0  0  0  0  0
    0.4518   -0.6674    0.0000 C   0  0  0  0  0  0  0  0  0  0  0  0
    1.7618    0.0000    0.0000 C   0  0  0  0  0  0  0  0  0  0  0  0
  1  2  2  0      
  2  3  1  0      
  3  4  2  0      
  4  5  1  0      
  5  6  2  0      
  6  1  1  0      
  4  7  1  0      
  7  8  1  0      
  8  9  2  0      
  9  5  1  0      
  8 10  1  0      
M  END
$$$$
sidechains.sdf
  ChemDraw12171923412D

 11 12  0  0  0  0  0  0  0  0999 V2000
   -1.3492    0.8250    0.0000 C   0  0  0  0  0  0  0  0  0  0  0  0
   -1.3492    0.0000    0.0000 C   0  0  0  0  0  0  0  0  0  0  0  0
   -0.6348   -0.4125    0.0000 C   0  0  0  0  0  0  0  0  0  0  0  0
    0.0797    0.0000    0.0000 C   0  0  0  0  0  0  0  0  0  0  0  0
    0.0797    0.8250    0.0000 C   0  0  0  0  0  0  0  0  0  0  0  0
   -0.6348    1.2375    0.0000 N   0  0  0  0  0  0  0  0  0  0  0  0
    0.8643   -0.2549    0.0000 C   0  0  0  0  0  0  0  0  0  0  0  0
    1.3492    0.4125    0.0000 C   0  0  0  0  0  0  0  0  0  0  0  0
    0.8643    1.0799    0.0000 S   0  0  0  0  0  0  0  0  0  0  0  0
   -0.6348   -1.2375    0.0000 O   0  0  0  0  0  0  0  0  0  0  0  0
    1.1193   -1.0396    0.0000 C   0  0  0  0  0  0  0  0  0  0  0  0
  3  4  1  0      
  5  6  1  0      
  4  7  1  0      
  7  8  2  0      
  8  9  1  0      
  9  5  1  0      
  5  4  2  0      
  2  3  2  0      
  1  6  2  0      
  1  2  1  0      
  3 10  1  0      
  7 11  1  0      
M  END
$$$$
sidechains.sdf
  ChemDraw12171923412D

 11 12  0  0  0  0  0  0  0  0999 V2000
   -0.9920    0.7260    0.0000 C   0  0  0  0  0  0  0  0  0  0  0  0
   -0.9920   -0.0990    0.0000 N   0  0  0  0  0  0  0  0  0  0  0  0
   -0.2775   -0.5115    0.0000 C   0  0  0  0  0  0  0  0  0  0  0  0
    0.4369   -0.0990    0.0000 C   0  0  0  0  0  0  0  0  0  0  0  0
    0.4369    0.7260    0.0000 C   0  0  0  0  0  0  0  0  0  0  0  0
   -0.2775    1.1385    0.0000 N   0  0  0  0  0  0  0  0  0  0  0  0
    1.2216   -0.3539    0.0000 C   0  0  0  0  0  0  0  0  0  0  0  0
    1.7064    0.3135    0.0000 C   0  0  0  0  0  0  0  0  0  0  0  0
    1.2216    0.9810    0.0000 O   0  0  0  0  0  0  0  0  0  0  0  0
   -1.7064    1.1385    0.0000 O   0  0  0  0  0  0  0  0  0  0  0  0
    1.4765   -1.1385    0.0000 C   0  0  0  0  0  0  0  0  0  0  0  0
  1  2  2  0      
  2  3  1  0      
  3  4  2  0      
  4  5  1  0      
  5  6  2  0      
  6  1  1  0      
  4  7  1  0      
  7  8  2  0      
  8  9  1  0      
  9  5  1  0      
 10  1  1  0      
  7 11  1  0      
M  END
$$$$
sidechains.sdf
  ChemDraw12171923412D

 11 12  0  0  0  0  0  0  0  0999 V2000
   -1.3492    0.3135    0.0000 C   0  0  0  0  0  0  0  0  0  0  0  0
   -1.3492   -0.5115    0.0000 C   0  0  0  0  0  0  0  0  0  0  0  0
   -0.6348   -0.9240    0.0000 N   0  0  0  0  0  0  0  0  0  0  0  0
    0.0797   -0.5115    0.0000 C   0  0  0  0  0  0  0  0  0  0  0  0
    0.0797    0.3135    0.0000 C   0  0  0  0  0  0  0  0  0  0  0  0
   -0.6348    0.7260    0.0000 C   0  0  0  0  0  0  0  0  0  0  0  0
    0.8643   -0.7664    0.0000 C   0  0  0  0  0  0  0  0  0  0  0  0
    1.3492   -0.0990    0.0000 C   0  0  0  0  0  0  0  0  0  0  0  0
    0.8643    0.5685    0.0000 S   0  0  0  0  0  0  0  0  0  0  0  0
   -0.6348    1.5510    0.0000 O   0  0  0  0  0  0  0  0  0  0  0  0
    1.1193   -1.5510    0.0000 C   0  0  0  0  0  0  0  0  0  0  0  0
  3  4  1  0      
  4  5  2  0      
  5  6  1  0      
  4  7  1  0      
  7  8  2  0      
  8  9  1  0      
  9  5  1  0      
 10  6  2  0      
  1  2  2  0      
  1  6  1  0      
  2  3  1  0      
  7 11  1  0      
M  END
$$$$
sidechains.sdf
  ChemDraw12171923412D

 11 12  0  0  0  0  0  0  0  0999 V2000
   -0.9920    0.0000    0.0000 N   0  0  0  0  0  0  0  0  0  0  0  0
   -0.9920   -0.8250    0.0000 C   0  0  0  0  0  0  0  0  0  0  0  0
   -0.2775   -1.2375    0.0000 N   0  0  0  0  0  0  0  0  0  0  0  0
    0.4369   -0.8250    0.0000 C   0  0  0  0  0  0  0  0  0  0  0  0
    0.4369    0.0000    0.0000 C   0  0  0  0  0  0  0  0  0  0  0  0
   -0.2775    0.4125    0.0000 C   0  0  0  0  0  0  0  0  0  0  0  0
    1.2216   -1.0799    0.0000 C   0  0  0  0  0  0  0  0  0  0  0  0
    1.7065   -0.4125    0.0000 N   0  0  0  0  0  0  0  0  0  0  0  0
    1.2216    0.2549    0.0000 N   0  0  0  0  0  0  0  0  0  0  0  0
   -1.7065   -1.2375    0.0000 O   0  0  0  0  0  0  0  0  0  0  0  0
   -0.2775    1.2375    0.0000 C   0  0  0  0  0  0  0  0  0  0  0  0
  1  2  1  0      
  2  3  2  0      
  3  4  1  0      
  4  5  1  0      
  5  6  1  0      
  6  1  2  0      
  4  7  2  0      
  7  8  1  0      
  8  9  1  0      
  9  5  2  0      
  2 10  1  0      
  6 11  1  0      
M  END
$$$$
sidechains.sdf
  ChemDraw12171923412D

  9 10  0  0  0  0  0  0  0  0999 V2000
   -1.2695   -0.3923    0.0000 C   0  0  0  0  0  0  0  0  0  0  0  0
   -0.7846   -1.0598    0.0000 C   0  0  0  0  0  0  0  0  0  0  0  0
    0.0000   -0.8047    0.0000 C   0  0  0  0  0  0  0  0  0  0  0  0
    0.0000    0.0202    0.0000 C   0  0  0  0  0  0  0  0  0  0  0  0
   -0.7847    0.2752    0.0000 O   0  0  0  0  0  0  0  0  0  0  0  0
    0.7847   -1.0597    0.0000 C   0  0  0  0  0  0  0  0  0  0  0  0
    1.2695   -0.3922    0.0000 N   0  0  0  0  0  0  0  0  0  0  0  0
    0.7846    0.2752    0.0000 N   0  0  0  0  0  0  0  0  0  0  0  0
    1.0395    1.0598    0.0000 C   0  0  0  0  0  0  0  0  0  0  0  0
  1  2  2  0      
  2  3  1  0      
  3  4  2  0      
  4  5  1  0      
  5  1  1  0      
  3  6  1  0      
  6  7  2  0      
  7  8  1  0      
  8  4  1  0      
  8  9  1  0      
M  END
$$$$
sidechains.sdf
  ChemDraw12171923412D

  9 10  0  0  0  0  0  0  0  0999 V2000
   -1.2695    0.3924    0.0000 C   0  0  0  0  0  0  0  0  0  0  0  0
   -0.7846   -0.2751    0.0000 S   0  0  0  0  0  0  0  0  0  0  0  0
    0.0000   -0.0202    0.0000 C   0  0  0  0  0  0  0  0  0  0  0  0
    0.0000    0.8048    0.0000 C   0  0  0  0  0  0  0  0  0  0  0  0
   -0.7846    1.0598    0.0000 N   0  0  0  0  0  0  0  0  0  0  0  0
    0.7846   -0.2751    0.0000 C   0  0  0  0  0  0  0  0  0  0  0  0
    1.2695    0.3923    0.0000 N   0  0  0  0  0  0  0  0  0  0  0  0
    0.7846    1.0597    0.0000 N   0  0  0  0  0  0  0  0  0  0  0  0
    1.0396   -1.0598    0.0000 C   0  0  0  0  0  0  0  0  0  0  0  0
  1  2  1  0      
  2  3  1  0      
  3  4  1  0      
  4  5  1  0      
  5  1  2  0      
  3  6  2  0      
  6  7  1  0      
  7  8  1  0      
  8  4  2  0      
  6  9  1  0      
M  END
$$$$
sidechains.sdf
  ChemDraw12171923412D

  8  8  0  0  0  0  0  0  0  0999 V2000
    0.7145   -0.4125    0.0000 C   0  0  0  0  0  0  0  0  0  0  0  0
    0.7145    0.4125    0.0000 C   0  0  0  0  0  0  0  0  0  0  0  0
   -0.0000    0.8250    0.0000 C   0  0  0  0  0  0  0  0  0  0  0  0
   -0.7145    0.4125    0.0000 C   0  0  0  0  0  0  0  0  0  0  0  0
   -0.7145   -0.4125    0.0000 C   0  0  0  0  0  0  0  0  0  0  0  0
   -0.0000   -0.8250    0.0000 C   0  0  0  0  0  0  0  0  0  0  0  0
   -1.4289    0.8250    0.0000 O   0  0  0  0  0  0  0  0  0  0  0  0
    1.4289    0.8250    0.0000 C   0  0  0  0  0  0  0  0  0  0  0  0
  1  2  2  0      
  2  3  1  0      
  3  4  2  0      
  4  5  1  0      
  5  6  2  0      
  6  1  1  0      
  4  7  1  0      
  2  8  1  0      
M  END
$$$$
sidechains.sdf
  ChemDraw12171923412D

  6  6  0  0  0  0  0  0  0  0999 V2000
    0.5275   -0.3010    0.0000 C   0  0  0  0  0  0  0  0  0  0  0  0
    0.7825    0.4835    0.0000 C   0  0  0  0  0  0  0  0  0  0  0  0
    0.1150    0.9684    0.0000 C   0  0  0  0  0  0  0  0  0  0  0  0
   -0.5524    0.4836    0.0000 C   0  0  0  0  0  0  0  0  0  0  0  0
   -0.2975   -0.3010    0.0000 N   0  0  0  0  0  0  0  0  0  0  0  0
   -0.7825   -0.9684    0.0000 C   0  0  0  0  0  0  0  0  0  0  0  0
  1  2  2  0      
  2  3  1  0      
  3  4  2  0      
  4  5  1  0      
  5  1  1  0      
  5  6  1  0      
M  END
$$$$
sidechains.sdf
  ChemDraw12171923412D

 12 13  0  0  0  0  0  0  0  0999 V2000
   -1.7861   -0.8250    0.0000 C   0  0  0  0  0  0  0  0  0  0  0  0
   -1.0717   -1.2375    0.0000 C   0  0  0  0  0  0  0  0  0  0  0  0
   -0.3572   -0.8250    0.0000 C   0  0  0  0  0  0  0  0  0  0  0  0
   -0.3572    0.0000    0.0000 N   0  0  0  0  0  0  0  0  0  0  0  0
    0.3572   -1.2375    0.0000 C   0  0  0  0  0  0  0  0  0  0  0  0
    1.0717   -0.8250    0.0000 C   0  0  0  0  0  0  0  0  0  0  0  0
    1.0717    0.0000    0.0000 C   0  0  0  0  0  0  0  0  0  0  0  0
    0.3572    0.4125    0.0000 C   0  0  0  0  0  0  0  0  0  0  0  0
    0.3572    1.2375    0.0000 O   0  0  0  0  0  0  0  0  0  0  0  0
   -1.7861    0.0000    0.0000 C   0  0  0  0  0  0  0  0  0  0  0  0
   -1.0717    0.4125    0.0000 C   0  0  0  0  0  0  0  0  0  0  0  0
    1.7861   -1.2375    0.0000 C   0  0  0  0  0  0  0  0  0  0  0  0
  1  2  2  0      
  3  4  1  0      
  3  5  2  0      
  6  7  2  0      
  8  4  1  0      
  8  9  2  0      
  2  3  1  0      
  1 10  1  0      
  4 11  1  0      
 10 11  2  0      
  6  5  1  0      
  7  8  1  0      
  6 12  1  0      
M  END
$$$$
sidechains.sdf
  ChemDraw12171923412D

 10 11  0  0  0  0  0  0  0  0999 V2000
   -1.3493    0.8250    0.0000 C   0  0  0  0  0  0  0  0  0  0  0  0
   -1.3493    0.0000    0.0000 C   0  0  0  0  0  0  0  0  0  0  0  0
   -0.6348   -0.4125    0.0000 C   0  0  0  0  0  0  0  0  0  0  0  0
    0.0797    0.0000    0.0000 C   0  0  0  0  0  0  0  0  0  0  0  0
    0.0797    0.8250    0.0000 C   0  0  0  0  0  0  0  0  0  0  0  0
   -0.6348    1.2375    0.0000 C   0  0  0  0  0  0  0  0  0  0  0  0
    0.8643   -0.2549    0.0000 C   0  0  0  0  0  0  0  0  0  0  0  0
    1.3493    0.4125    0.0000 N   0  0  0  0  0  0  0  0  0  0  0  0
    0.8643    1.0799    0.0000 C   0  0  0  0  0  0  0  0  0  0  0  0
   -0.6348   -1.2375    0.0000 C   0  0  0  0  0  0  0  0  0  0  0  0
  1  2  1  0      
  2  3  2  0      
  3  4  1  0      
  4  5  1  0      
  5  6  1  0      
  6  1  2  0      
  4  7  2  0      
  7  8  1  0      
  8  9  1  0      
  9  5  2  0      
  3 10  1  0      
M  END
$$$$
sidechains.sdf
  ChemDraw12171923412D

  9 10  0  0  0  0  0  0  0  0999 V2000
   -0.7846    0.2751    0.0000 C   0  0  0  0  0  0  0  0  0  0  0  0
   -1.2695   -0.3924    0.0000 C   0  0  0  0  0  0  0  0  0  0  0  0
   -0.7846   -1.0598    0.0000 C   0  0  0  0  0  0  0  0  0  0  0  0
    0.0000   -0.8048    0.0000 C   0  0  0  0  0  0  0  0  0  0  0  0
    0.0000    0.0202    0.0000 N   0  0  0  0  0  0  0  0  0  0  0  0
    0.7846   -1.0597    0.0000 N   0  0  0  0  0  0  0  0  0  0  0  0
    1.2695   -0.3923    0.0000 C   0  0  0  0  0  0  0  0  0  0  0  0
    0.7846    0.2751    0.0000 C   0  0  0  0  0  0  0  0  0  0  0  0
    1.0396    1.0598    0.0000 C   0  0  0  0  0  0  0  0  0  0  0  0
  1  2  2  0      
  2  3  1  0      
  3  4  2  0      
  4  5  1  0      
  5  1  1  0      
  6  7  1  0      
  7  8  2  0      
  8  5  1  0      
  4  6  1  0      
  8  9  1  0      
M  END
$$$$
sidechains.sdf
  ChemDraw12171923412D

  9 10  0  0  0  0  0  0  0  0999 V2000
   -1.6820   -0.0001    0.0000 C   0  0  0  0  0  0  0  0  0  0  0  0
   -1.1970   -0.6676    0.0000 C   0  0  0  0  0  0  0  0  0  0  0  0
   -0.4125   -0.4125    0.0000 C   0  0  0  0  0  0  0  0  0  0  0  0
   -0.4125    0.4125    0.0000 C   0  0  0  0  0  0  0  0  0  0  0  0
   -1.1972    0.6674    0.0000 S   0  0  0  0  0  0  0  0  0  0  0  0
    0.3722   -0.6674    0.0000 C   0  0  0  0  0  0  0  0  0  0  0  0
    0.8570    0.0001    0.0000 C   0  0  0  0  0  0  0  0  0  0  0  0
    0.3720    0.6676    0.0000 O   0  0  0  0  0  0  0  0  0  0  0  0
    1.6820    0.0001    0.0000 C   0  0  0  0  0  0  0  0  0  0  0  0
  1  2  2  0      
  2  3  1  0      
  3  4  2  0      
  4  5  1  0      
  5  1  1  0      
  3  6  1  0      
  6  7  2  0      
  7  8  1  0      
  8  4  1  0      
  7  9  1  0      
M  END
$$$$
sidechains.sdf
  ChemDraw12171923412D

  9 10  0  0  0  0  0  0  0  0999 V2000
   -1.6820    0.0001    0.0000 C   0  0  0  0  0  0  0  0  0  0  0  0
   -1.1972   -0.6674    0.0000 C   0  0  0  0  0  0  0  0  0  0  0  0
   -0.4125   -0.4125    0.0000 C   0  0  0  0  0  0  0  0  0  0  0  0
   -0.4125    0.4125    0.0000 C   0  0  0  0  0  0  0  0  0  0  0  0
   -1.1971    0.6675    0.0000 O   0  0  0  0  0  0  0  0  0  0  0  0
    0.3721   -0.6675    0.0000 C   0  0  0  0  0  0  0  0  0  0  0  0
    0.8570   -0.0001    0.0000 N   0  0  0  0  0  0  0  0  0  0  0  0
    0.3721    0.6674    0.0000 N   0  0  0  0  0  0  0  0  0  0  0  0
    1.6820   -0.0001    0.0000 C   0  0  0  0  0  0  0  0  0  0  0  0
  1  2  2  0      
  2  3  1  0      
  3  4  1  0      
  4  5  1  0      
  5  1  1  0      
  3  6  2  0      
  6  7  1  0      
  7  8  1  0      
  8  4  2  0      
  7  9  1  0      
M  END
$$$$
sidechains.sdf
  ChemDraw12171923412D

  9 10  0  0  0  0  0  0  0  0999 V2000
   -0.7846    1.0598    0.0000 C   0  0  0  0  0  0  0  0  0  0  0  0
   -1.2696    0.3923    0.0000 C   0  0  0  0  0  0  0  0  0  0  0  0
   -0.7846   -0.2751    0.0000 S   0  0  0  0  0  0  0  0  0  0  0  0
    0.0000   -0.0202    0.0000 C   0  0  0  0  0  0  0  0  0  0  0  0
    0.0000    0.8048    0.0000 N   0  0  0  0  0  0  0  0  0  0  0  0
    0.7846   -0.2751    0.0000 C   0  0  0  0  0  0  0  0  0  0  0  0
    1.2696    0.3923    0.0000 N   0  0  0  0  0  0  0  0  0  0  0  0
    0.7847    1.0598    0.0000 C   0  0  0  0  0  0  0  0  0  0  0  0
    1.0395   -1.0598    0.0000 C   0  0  0  0  0  0  0  0  0  0  0  0
  1  2  2  0      
  2  3  1  0      
  3  4  1  0      
  4  5  1  0      
  5  1  1  0      
  4  6  2  0      
  6  7  1  0      
  7  8  2  0      
  8  5  1  0      
  6  9  1  0      
M  END
$$$$
sidechains.sdf
  ChemDraw12171923412D

  9 10  0  0  0  0  0  0  0  0999 V2000
   -1.2695    0.3923    0.0000 S   0  0  0  0  0  0  0  0  0  0  0  0
   -0.7847   -0.2751    0.0000 C   0  0  0  0  0  0  0  0  0  0  0  0
   -0.0000   -0.0202    0.0000 C   0  0  0  0  0  0  0  0  0  0  0  0
   -0.0000    0.8048    0.0000 C   0  0  0  0  0  0  0  0  0  0  0  0
   -0.7846    1.0598    0.0000 C   0  0  0  0  0  0  0  0  0  0  0  0
    0.7846   -0.2752    0.0000 C   0  0  0  0  0  0  0  0  0  0  0  0
    1.2695    0.3923    0.0000 C   0  0  0  0  0  0  0  0  0  0  0  0
    0.7847    1.0598    0.0000 S   0  0  0  0  0  0  0  0  0  0  0  0
    1.0395   -1.0598    0.0000 C   0  0  0  0  0  0  0  0  0  0  0  0
  1  2  1  0      
  2  3  2  0      
  3  4  1  0      
  4  5  2  0      
  5  1  1  0      
  3  6  1  0      
  6  7  2  0      
  7  8  1  0      
  8  4  1  0      
  6  9  1  0      
M  END
$$$$
sidechains.sdf
  ChemDraw12171923412D

 10 11  0  0  0  0  0  0  0  0999 V2000
   -1.3492   -0.7260    0.0000 C   0  0  0  0  0  0  0  0  0  0  0  0
   -1.3492    0.0990    0.0000 C   0  0  0  0  0  0  0  0  0  0  0  0
   -0.6348    0.5115    0.0000 C   0  0  0  0  0  0  0  0  0  0  0  0
    0.0797    0.0990    0.0000 C   0  0  0  0  0  0  0  0  0  0  0  0
    0.0797   -0.7260    0.0000 C   0  0  0  0  0  0  0  0  0  0  0  0
   -0.6348   -1.1385    0.0000 C   0  0  0  0  0  0  0  0  0  0  0  0
    0.8643    0.3539    0.0000 C   0  0  0  0  0  0  0  0  0  0  0  0
    1.3492   -0.3135    0.0000 O   0  0  0  0  0  0  0  0  0  0  0  0
    0.8643   -0.9810    0.0000 C   0  0  0  0  0  0  0  0  0  0  0  0
    1.1193    1.1385    0.0000 C   0  0  0  0  0  0  0  0  0  0  0  0
  1  2  1  0      
  2  3  2  0      
  3  4  1  0      
  4  5  1  0      
  5  6  1  0      
  6  1  2  0      
  4  7  2  0      
  7  8  1  0      
  8  9  1  0      
  9  5  2  0      
  7 10  1  0      
M  END
$$$$
sidechains.sdf
  ChemDraw12171923412D

  9 10  0  0  0  0  0  0  0  0999 V2000
   -1.1971    0.6675    0.0000 C   0  0  0  0  0  0  0  0  0  0  0  0
   -1.6820    0.0001    0.0000 S   0  0  0  0  0  0  0  0  0  0  0  0
   -1.1972   -0.6674    0.0000 C   0  0  0  0  0  0  0  0  0  0  0  0
   -0.4126   -0.4125    0.0000 C   0  0  0  0  0  0  0  0  0  0  0  0
   -0.4126    0.4125    0.0000 C   0  0  0  0  0  0  0  0  0  0  0  0
    0.3721   -0.6675    0.0000 N   0  0  0  0  0  0  0  0  0  0  0  0
    0.8570   -0.0001    0.0000 C   0  0  0  0  0  0  0  0  0  0  0  0
    0.3722    0.6674    0.0000 N   0  0  0  0  0  0  0  0  0  0  0  0
    1.6820   -0.0001    0.0000 C   0  0  0  0  0  0  0  0  0  0  0  0
  1  2  1  0      
  2  3  1  0      
  3  4  2  0      
  4  5  1  0      
  5  1  2  0      
  4  6  1  0      
  6  7  2  0      
  7  8  1  0      
  8  5  1  0      
  7  9  1  0      
M  END
$$$$
sidechains.sdf
  ChemDraw12171923412D

 11 12  0  0  0  0  0  0  0  0999 V2000
   -1.3492    0.5115    0.0000 C   0  0  0  0  0  0  0  0  0  0  0  0
   -1.3492   -0.3135    0.0000 C   0  0  0  0  0  0  0  0  0  0  0  0
   -0.6348   -0.7260    0.0000 C   0  0  0  0  0  0  0  0  0  0  0  0
    0.0797   -0.3135    0.0000 N   0  0  0  0  0  0  0  0  0  0  0  0
    0.0797    0.5115    0.0000 C   0  0  0  0  0  0  0  0  0  0  0  0
   -0.6348    0.9240    0.0000 N   0  0  0  0  0  0  0  0  0  0  0  0
    0.8643   -0.5685    0.0000 C   0  0  0  0  0  0  0  0  0  0  0  0
    1.3492    0.0990    0.0000 C   0  0  0  0  0  0  0  0  0  0  0  0
    0.8643    0.7664    0.0000 C   0  0  0  0  0  0  0  0  0  0  0  0
   -0.6348   -1.5510    0.0000 O   0  0  0  0  0  0  0  0  0  0  0  0
    1.1193    1.5510    0.0000 C   0  0  0  0  0  0  0  0  0  0  0  0
  1  2  2  0      
  2  3  1  0      
  3  4  1  0      
  4  5  1  0      
  5  6  1  0      
  6  1  1  0      
  4  7  1  0      
  7  8  2  0      
  8  9  1  0      
  9  5  2  0      
  3 10  2  0      
  9 11  1  0      
M  END
$$$$
sidechains.sdf
  ChemDraw12171923412D

  9 10  0  0  0  0  0  0  0  0999 V2000
   -1.2695    0.3922    0.0000 C   0  0  0  0  0  0  0  0  0  0  0  0
   -0.7846   -0.2752    0.0000 C   0  0  0  0  0  0  0  0  0  0  0  0
    0.0000   -0.0202    0.0000 C   0  0  0  0  0  0  0  0  0  0  0  0
    0.0000    0.8047    0.0000 C   0  0  0  0  0  0  0  0  0  0  0  0
   -0.7847    1.0597    0.0000 S   0  0  0  0  0  0  0  0  0  0  0  0
    0.7847   -0.2752    0.0000 C   0  0  0  0  0  0  0  0  0  0  0  0
    1.2695    0.3923    0.0000 S   0  0  0  0  0  0  0  0  0  0  0  0
    0.7846    1.0598    0.0000 N   0  0  0  0  0  0  0  0  0  0  0  0
   -1.0395   -1.0598    0.0000 C   0  0  0  0  0  0  0  0  0  0  0  0
  1  2  2  0      
  2  3  1  0      
  3  4  1  0      
  4  5  1  0      
  5  1  1  0      
  3  6  2  0      
  6  7  1  0      
  7  8  1  0      
  8  4  2  0      
  2  9  1  0      
M  END
$$$$
sidechains.sdf
  ChemDraw12171923412D

 11 12  0  0  0  0  0  0  0  0999 V2000
   -1.7617    0.7260    0.0000 C   0  0  0  0  0  0  0  0  0  0  0  0
   -1.7617   -0.0990    0.0000 C   0  0  0  0  0  0  0  0  0  0  0  0
   -1.0473   -0.5115    0.0000 C   0  0  0  0  0  0  0  0  0  0  0  0
   -0.3328   -0.0990    0.0000 N   0  0  0  0  0  0  0  0  0  0  0  0
   -0.3328    0.7260    0.0000 C   0  0  0  0  0  0  0  0  0  0  0  0
   -1.0473    1.1385    0.0000 C   0  0  0  0  0  0  0  0  0  0  0  0
    0.4518   -0.3539    0.0000 C   0  0  0  0  0  0  0  0  0  0  0  0
    0.9367    0.3135    0.0000 N   0  0  0  0  0  0  0  0  0  0  0  0
    0.4518    0.9810    0.0000 N   0  0  0  0  0  0  0  0  0  0  0  0
    0.7068   -1.1385    0.0000 O   0  0  0  0  0  0  0  0  0  0  0  0
    1.7617    0.3135    0.0000 C   0  0  0  0  0  0  0  0  0  0  0  0
  1  2  1  0      
  2  3  2  0      
  3  4  1  0      
  4  5  1  0      
  5  6  1  0      
  6  1  2  0      
  4  7  1  0      
  7  8  1  0      
  8  9  1  0      
  9  5  2  0      
  7 10  2  0      
  8 11  1  0      
M  END
$$$$
sidechains.sdf
  ChemDraw12171923412D

  9 10  0  0  0  0  0  0  0  0999 V2000
   -0.0000    0.8048    0.0000 N   0  0  0  0  0  0  0  0  0  0  0  0
   -0.7846    1.0597    0.0000 C   0  0  0  0  0  0  0  0  0  0  0  0
   -1.2696    0.3923    0.0000 C   0  0  0  0  0  0  0  0  0  0  0  0
   -0.7846   -0.2751    0.0000 N   0  0  0  0  0  0  0  0  0  0  0  0
   -0.0000   -0.0202    0.0000 C   0  0  0  0  0  0  0  0  0  0  0  0
    0.7846   -0.2751    0.0000 C   0  0  0  0  0  0  0  0  0  0  0  0
    1.2696    0.3923    0.0000 C   0  0  0  0  0  0  0  0  0  0  0  0
    0.7846    1.0597    0.0000 N   0  0  0  0  0  0  0  0  0  0  0  0
    1.0396   -1.0597    0.0000 C   0  0  0  0  0  0  0  0  0  0  0  0
  1  2  1  0      
  2  3  2  0      
  3  4  1  0      
  5  1  1  0      
  5  6  2  0      
  6  7  1  0      
  7  8  2  0      
  8  1  1  0      
  5  4  1  0      
  6  9  1  0      
M  END
$$$$
sidechains.sdf
  ChemDraw12171923412D

 12 13  0  0  0  0  0  0  0  0999 V2000
   -1.7861    0.4125    0.0000 C   0  0  0  0  0  0  0  0  0  0  0  0
   -1.7861   -0.4125    0.0000 C   0  0  0  0  0  0  0  0  0  0  0  0
   -1.0717   -0.8250    0.0000 C   0  0  0  0  0  0  0  0  0  0  0  0
   -0.3572   -0.4125    0.0000 C   0  0  0  0  0  0  0  0  0  0  0  0
   -0.3572    0.4125    0.0000 N   0  0  0  0  0  0  0  0  0  0  0  0
   -1.0717    0.8250    0.0000 C   0  0  0  0  0  0  0  0  0  0  0  0
    0.3572   -0.8250    0.0000 N   0  0  0  0  0  0  0  0  0  0  0  0
    1.0717   -0.4125    0.0000 C   0  0  0  0  0  0  0  0  0  0  0  0
    1.0717    0.4125    0.0000 C   0  0  0  0  0  0  0  0  0  0  0  0
    0.3572    0.8250    0.0000 C   0  0  0  0  0  0  0  0  0  0  0  0
    1.7861   -0.8250    0.0000 O   0  0  0  0  0  0  0  0  0  0  0  0
    1.7861    0.8250    0.0000 C   0  0  0  0  0  0  0  0  0  0  0  0
  1  2  1  0      
  2  3  2  0      
  3  4  1  0      
  4  5  1  0      
  5  6  1  0      
  6  1  2  0      
  4  7  2  0      
  7  8  1  0      
  8  9  1  0      
  9 10  2  0      
 10  5  1  0      
  8 11  2  0      
  9 12  1  0      
M  END
$$$$
sidechains.sdf
  ChemDraw12171923412D

 11 12  0  0  0  0  0  0  0  0999 V2000
   -1.3492    0.8250    0.0000 C   0  0  0  0  0  0  0  0  0  0  0  0
   -1.3492    0.0000    0.0000 O   0  0  0  0  0  0  0  0  0  0  0  0
   -0.6348   -0.4125    0.0000 C   0  0  0  0  0  0  0  0  0  0  0  0
    0.0797    0.0000    0.0000 C   0  0  0  0  0  0  0  0  0  0  0  0
    0.0797    0.8250    0.0000 C   0  0  0  0  0  0  0  0  0  0  0  0
   -0.6348    1.2375    0.0000 C   0  0  0  0  0  0  0  0  0  0  0  0
    0.8643   -0.2549    0.0000 C   0  0  0  0  0  0  0  0  0  0  0  0
    1.3492    0.4125    0.0000 C   0  0  0  0  0  0  0  0  0  0  0  0
    0.8643    1.0799    0.0000 O   0  0  0  0  0  0  0  0  0  0  0  0
   -0.6348   -1.2375    0.0000 O   0  0  0  0  0  0  0  0  0  0  0  0
    1.1193   -1.0396    0.0000 C   0  0  0  0  0  0  0  0  0  0  0  0
  1  2  1  0      
  2  3  1  0      
  3  4  1  0      
  4  5  2  0      
  5  6  1  0      
  6  1  2  0      
  4  7  1  0      
  7  8  2  0      
  8  9  1  0      
  9  5  1  0      
  3 10  2  0      
  7 11  1  0      
M  END
$$$$
sidechains.sdf
  ChemDraw12171923412D

 11 12  0  0  0  0  0  0  0  0999 V2000
    0.0797    0.3135    0.0000 N   0  0  0  0  0  0  0  0  0  0  0  0
    0.0797   -0.5115    0.0000 C   0  0  0  0  0  0  0  0  0  0  0  0
   -0.6348   -0.9240    0.0000 N   0  0  0  0  0  0  0  0  0  0  0  0
   -1.3492   -0.5115    0.0000 C   0  0  0  0  0  0  0  0  0  0  0  0
   -1.3492    0.3135    0.0000 C   0  0  0  0  0  0  0  0  0  0  0  0
   -0.6348    0.7260    0.0000 C   0  0  0  0  0  0  0  0  0  0  0  0
    0.8643    0.5685    0.0000 N   0  0  0  0  0  0  0  0  0  0  0  0
    1.3492   -0.0990    0.0000 C   0  0  0  0  0  0  0  0  0  0  0  0
    0.8643   -0.7664    0.0000 C   0  0  0  0  0  0  0  0  0  0  0  0
   -0.6348    1.5510    0.0000 O   0  0  0  0  0  0  0  0  0  0  0  0
    1.1193   -1.5510    0.0000 C   0  0  0  0  0  0  0  0  0  0  0  0
  2  3  1  0      
  4  5  2  0      
  6  1  1  0      
  1  7  1  0      
  7  8  2  0      
  8  9  1  0      
  9  2  2  0      
  6 10  2  0      
  1  2  1  0      
  6  5  1  0      
  4  3  1  0      
  9 11  1  0      
M  END
$$$$
sidechains.sdf
  ChemDraw12171923412D

  9 10  0  0  0  0  0  0  0  0999 V2000
   -1.2695   -0.3922    0.0000 C   0  0  0  0  0  0  0  0  0  0  0  0
   -0.7846   -1.0597    0.0000 S   0  0  0  0  0  0  0  0  0  0  0  0
    0.0000   -0.8048    0.0000 C   0  0  0  0  0  0  0  0  0  0  0  0
    0.0000    0.0202    0.0000 C   0  0  0  0  0  0  0  0  0  0  0  0
   -0.7846    0.2752    0.0000 N   0  0  0  0  0  0  0  0  0  0  0  0
    0.7846   -1.0597    0.0000 C   0  0  0  0  0  0  0  0  0  0  0  0
    1.2695   -0.3923    0.0000 N   0  0  0  0  0  0  0  0  0  0  0  0
    0.7847    0.2751    0.0000 N   0  0  0  0  0  0  0  0  0  0  0  0
    1.0396    1.0597    0.0000 C   0  0  0  0  0  0  0  0  0  0  0  0
  1  2  1  0      
  2  3  1  0      
  3  4  2  0      
  4  5  1  0      
  5  1  2  0      
  3  6  1  0      
  6  7  2  0      
  7  8  1  0      
  8  4  1  0      
  8  9  1  0      
M  END
$$$$
sidechains.sdf
  ChemDraw12171923412D

  9 10  0  0  0  0  0  0  0  0999 V2000
   -1.2695    0.3924    0.0000 C   0  0  0  0  0  0  0  0  0  0  0  0
   -0.7846   -0.2751    0.0000 C   0  0  0  0  0  0  0  0  0  0  0  0
    0.0000   -0.0202    0.0000 C   0  0  0  0  0  0  0  0  0  0  0  0
    0.0000    0.8048    0.0000 N   0  0  0  0  0  0  0  0  0  0  0  0
   -0.7846    1.0598    0.0000 C   0  0  0  0  0  0  0  0  0  0  0  0
    0.7846   -0.2751    0.0000 N   0  0  0  0  0  0  0  0  0  0  0  0
    1.2695    0.3923    0.0000 C   0  0  0  0  0  0  0  0  0  0  0  0
    0.7846    1.0597    0.0000 N   0  0  0  0  0  0  0  0  0  0  0  0
    1.0396   -1.0598    0.0000 C   0  0  0  0  0  0  0  0  0  0  0  0
  1  2  1  0      
  2  3  2  0      
  3  4  1  0      
  4  5  1  0      
  5  1  2  0      
  3  6  1  0      
  6  7  1  0      
  7  8  2  0      
  8  4  1  0      
  6  9  1  0      
M  END
$$$$
sidechains.sdf
  ChemDraw12171923412D

 11 12  0  0  0  0  0  0  0  0999 V2000
   -1.3492    0.8250    0.0000 C   0  0  0  0  0  0  0  0  0  0  0  0
   -1.3492    0.0000    0.0000 C   0  0  0  0  0  0  0  0  0  0  0  0
   -0.6348   -0.4125    0.0000 C   0  0  0  0  0  0  0  0  0  0  0  0
    0.0797    0.0000    0.0000 N   0  0  0  0  0  0  0  0  0  0  0  0
    0.0797    0.8250    0.0000 C   0  0  0  0  0  0  0  0  0  0  0  0
   -0.6348    1.2375    0.0000 C   0  0  0  0  0  0  0  0  0  0  0  0
    0.8643   -0.2549    0.0000 N   0  0  0  0  0  0  0  0  0  0  0  0
    1.3492    0.4125    0.0000 C   0  0  0  0  0  0  0  0  0  0  0  0
    0.8643    1.0799    0.0000 N   0  0  0  0  0  0  0  0  0  0  0  0
   -0.6348   -1.2375    0.0000 O   0  0  0  0  0  0  0  0  0  0  0  0
    1.1193   -1.0396    0.0000 C   0  0  0  0  0  0  0  0  0  0  0  0
  1  2  2  0      
  2  3  1  0      
  3  4  1  0      
  4  5  1  0      
  5  6  2  0      
  6  1  1  0      
  4  7  1  0      
  7  8  1  0      
  8  9  2  0      
  9  5  1  0      
  3 10  2  0      
  7 11  1  0      
M  END
$$$$
sidechains.sdf
  ChemDraw12171923412D

 10 11  0  0  0  0  0  0  0  0999 V2000
   -1.3492   -0.0990    0.0000 C   0  0  0  0  0  0  0  0  0  0  0  0
   -1.3492    0.7260    0.0000 C   0  0  0  0  0  0  0  0  0  0  0  0
   -0.6348    1.1385    0.0000 C   0  0  0  0  0  0  0  0  0  0  0  0
    0.0797    0.7260    0.0000 C   0  0  0  0  0  0  0  0  0  0  0  0
    0.0797   -0.0990    0.0000 C   0  0  0  0  0  0  0  0  0  0  0  0
   -0.6348   -0.5115    0.0000 C   0  0  0  0  0  0  0  0  0  0  0  0
    0.8643    0.9810    0.0000 S   0  0  0  0  0  0  0  0  0  0  0  0
    1.3492    0.3135    0.0000 C   0  0  0  0  0  0  0  0  0  0  0  0
    0.8643   -0.3539    0.0000 C   0  0  0  0  0  0  0  0  0  0  0  0
    1.1193   -1.1385    0.0000 C   0  0  0  0  0  0  0  0  0  0  0  0
  1  2  2  0      
  2  3  1  0      
  3  4  2  0      
  4  5  1  0      
  5  6  2  0      
  6  1  1  0      
  4  7  1  0      
  7  8  1  0      
  8  9  2  0      
  9  5  1  0      
  9 10  1  0      
M  END
$$$$
sidechains.sdf
  ChemDraw12171923412D

 10 11  0  0  0  0  0  0  0  0999 V2000
   -1.7618   -0.4125    0.0000 C   0  0  0  0  0  0  0  0  0  0  0  0
   -1.7618    0.4125    0.0000 C   0  0  0  0  0  0  0  0  0  0  0  0
   -1.0473    0.8250    0.0000 C   0  0  0  0  0  0  0  0  0  0  0  0
   -0.3328    0.4125    0.0000 C   0  0  0  0  0  0  0  0  0  0  0  0
   -0.3328   -0.4125    0.0000 C   0  0  0  0  0  0  0  0  0  0  0  0
   -1.0473   -0.8250    0.0000 C   0  0  0  0  0  0  0  0  0  0  0  0
    0.4518    0.6674    0.0000 O   0  0  0  0  0  0  0  0  0  0  0  0
    0.9367    0.0000    0.0000 C   0  0  0  0  0  0  0  0  0  0  0  0
    0.4518   -0.6674    0.0000 C   0  0  0  0  0  0  0  0  0  0  0  0
    1.7618    0.0000    0.0000 C   0  0  0  0  0  0  0  0  0  0  0  0
  1  2  2  0      
  2  3  1  0      
  3  4  2  0      
  4  5  1  0      
  5  6  2  0      
  6  1  1  0      
  4  7  1  0      
  7  8  1  0      
  8  9  2  0      
  9  5  1  0      
  8 10  1  0      
M  END
$$$$
sidechains.sdf
  ChemDraw12171923412D

 11 12  0  0  0  0  0  0  0  0999 V2000
   -1.7617    0.8250    0.0000 C   0  0  0  0  0  0  0  0  0  0  0  0
   -1.7617    0.0000    0.0000 C   0  0  0  0  0  0  0  0  0  0  0  0
   -1.0473   -0.4125    0.0000 C   0  0  0  0  0  0  0  0  0  0  0  0
   -0.3328    0.0000    0.0000 N   0  0  0  0  0  0  0  0  0  0  0  0
   -0.3328    0.8250    0.0000 C   0  0  0  0  0  0  0  0  0  0  0  0
   -1.0473    1.2375    0.0000 C   0  0  0  0  0  0  0  0  0  0  0  0
    0.4518   -0.2549    0.0000 N   0  0  0  0  0  0  0  0  0  0  0  0
    0.9367    0.4125    0.0000 C   0  0  0  0  0  0  0  0  0  0  0  0
    0.4518    1.0799    0.0000 N   0  0  0  0  0  0  0  0  0  0  0  0
   -1.0473   -1.2375    0.0000 O   0  0  0  0  0  0  0  0  0  0  0  0
    1.7617    0.4125    0.0000 C   0  0  0  0  0  0  0  0  0  0  0  0
  1  2  2  0      
  2  3  1  0      
  3  4  1  0      
  4  5  1  0      
  5  6  2  0      
  6  1  1  0      
  4  7  1  0      
  7  8  1  0      
  8  9  2  0      
  9  5  1  0      
  3 10  2  0      
  8 11  1  0      
M  END
$$$$
sidechains.sdf
  ChemDraw12171923412D

 11 12  0  0  0  0  0  0  0  0999 V2000
   -1.3492    0.5115    0.0000 C   0  0  0  0  0  0  0  0  0  0  0  0
   -1.3492   -0.3135    0.0000 C   0  0  0  0  0  0  0  0  0  0  0  0
   -0.6348   -0.7260    0.0000 C   0  0  0  0  0  0  0  0  0  0  0  0
    0.0797   -0.3135    0.0000 N   0  0  0  0  0  0  0  0  0  0  0  0
    0.0797    0.5115    0.0000 C   0  0  0  0  0  0  0  0  0  0  0  0
   -0.6348    0.9240    0.0000 C   0  0  0  0  0  0  0  0  0  0  0  0
    0.8643   -0.5685    0.0000 N   0  0  0  0  0  0  0  0  0  0  0  0
    1.3492    0.0990    0.0000 C   0  0  0  0  0  0  0  0  0  0  0  0
    0.8643    0.7664    0.0000 N   0  0  0  0  0  0  0  0  0  0  0  0
   -0.6348   -1.5510    0.0000 O   0  0  0  0  0  0  0  0  0  0  0  0
    1.1193    1.5510    0.0000 C   0  0  0  0  0  0  0  0  0  0  0  0
  1  2  2  0      
  2  3  1  0      
  3  4  1  0      
  4  5  1  0      
  5  6  2  0      
  6  1  1  0      
  4  7  1  0      
  7  8  2  0      
  8  9  1  0      
  9  5  1  0      
  3 10  2  0      
  9 11  1  0      
M  END
$$$$
sidechains.sdf
  ChemDraw12171923412D

 11 12  0  0  0  0  0  0  0  0999 V2000
    0.9920   -0.7260    0.0000 C   0  0  0  0  0  0  0  0  0  0  0  0
    0.9920    0.0990    0.0000 C   0  0  0  0  0  0  0  0  0  0  0  0
    0.2775    0.5115    0.0000 C   0  0  0  0  0  0  0  0  0  0  0  0
   -0.4369    0.0990    0.0000 C   0  0  0  0  0  0  0  0  0  0  0  0
   -0.4369   -0.7260    0.0000 C   0  0  0  0  0  0  0  0  0  0  0  0
    0.2775   -1.1385    0.0000 C   0  0  0  0  0  0  0  0  0  0  0  0
   -1.2216    0.3539    0.0000 C   0  0  0  0  0  0  0  0  0  0  0  0
   -1.7064   -0.3135    0.0000 C   0  0  0  0  0  0  0  0  0  0  0  0
   -1.2216   -0.9810    0.0000 N   0  0  0  0  0  0  0  0  0  0  0  0
   -1.4765    1.1385    0.0000 C   0  0  0  0  0  0  0  0  0  0  0  0
    1.7064    0.5115    0.0000 C   1  0  0  0  0  0  0  0  0  0  0  0
  2 11  1  0      
  1  2  2  0      
  2  3  1  0      
  3  4  2  0      
  4  5  1  0      
  5  6  2  0      
  6  1  1  0      
  4  7  1  0      
  7  8  2  0      
  8  9  1  0      
  9  5  1  0      
  7 10  1  0      
M  ISO  1  11  13
M  END
$$$$
sidechains.sdf
  ChemDraw12171923412D

  9 10  0  0  0  0  0  0  0  0999 V2000
   -1.2695    0.3922    0.0000 C   0  0  0  0  0  0  0  0  0  0  0  0
   -0.7846   -0.2752    0.0000 C   0  0  0  0  0  0  0  0  0  0  0  0
    0.0000   -0.0202    0.0000 C   0  0  0  0  0  0  0  0  0  0  0  0
    0.0000    0.8047    0.0000 C   0  0  0  0  0  0  0  0  0  0  0  0
   -0.7847    1.0597    0.0000 O   0  0  0  0  0  0  0  0  0  0  0  0
    0.7847   -0.2752    0.0000 C   0  0  0  0  0  0  0  0  0  0  0  0
    1.2695    0.3923    0.0000 N   0  0  0  0  0  0  0  0  0  0  0  0
    0.7846    1.0598    0.0000 N   0  0  0  0  0  0  0  0  0  0  0  0
   -1.0395   -1.0598    0.0000 C   0  0  0  0  0  0  0  0  0  0  0  0
  1  2  2  0      
  2  3  1  0      
  3  4  2  0      
  4  5  1  0      
  5  1  1  0      
  3  6  1  0      
  6  7  2  0      
  7  8  1  0      
  8  4  1  0      
  2  9  1  0      
M  END
$$$$
sidechains.sdf
  ChemDraw12171923412D

 11 12  0  0  0  0  0  0  0  0999 V2000
   -1.3492    0.8250    0.0000 C   0  0  0  0  0  0  0  0  0  0  0  0
   -1.3492    0.0000    0.0000 C   0  0  0  0  0  0  0  0  0  0  0  0
   -0.6348   -0.4125    0.0000 C   0  0  0  0  0  0  0  0  0  0  0  0
    0.0797    0.0000    0.0000 C   0  0  0  0  0  0  0  0  0  0  0  0
    0.0797    0.8250    0.0000 C   0  0  0  0  0  0  0  0  0  0  0  0
   -0.6348    1.2375    0.0000 N   0  0  0  0  0  0  0  0  0  0  0  0
    0.8643   -0.2549    0.0000 C   0  0  0  0  0  0  0  0  0  0  0  0
    1.3492    0.4125    0.0000 C   0  0  0  0  0  0  0  0  0  0  0  0
    0.8643    1.0799    0.0000 S   0  0  0  0  0  0  0  0  0  0  0  0
   -0.6348   -1.2375    0.0000 O   0  0  0  0  0  0  0  0  0  0  0  0
    1.1193   -1.0396    0.0000 C   0  0  0  0  0  0  0  0  0  0  0  0
  3  4  1  0      
  5  6  1  0      
  4  7  1  0      
  7  8  2  0      
  8  9  1  0      
  9  5  1  0      
  3 10  2  0      
  1  2  2  0      
  5  4  2  0      
  2  3  1  0      
  1  6  1  0      
  7 11  1  0      
M  END
$$$$
sidechains.sdf
  ChemDraw12171923412D

 11 12  0  0  0  0  0  0  0  0999 V2000
   -0.9920    0.8250    0.0000 C   0  0  0  0  0  0  0  0  0  0  0  0
   -0.9920    0.0000    0.0000 C   0  0  0  0  0  0  0  0  0  0  0  0
   -0.2775   -0.4125    0.0000 C   0  0  0  0  0  0  0  0  0  0  0  0
    0.4369    0.0000    0.0000 C   0  0  0  0  0  0  0  0  0  0  0  0
    0.4369    0.8250    0.0000 C   0  0  0  0  0  0  0  0  0  0  0  0
   -0.2775    1.2375    0.0000 N   0  0  0  0  0  0  0  0  0  0  0  0
    1.2216   -0.2549    0.0000 C   0  0  0  0  0  0  0  0  0  0  0  0
    1.7065    0.4125    0.0000 C   0  0  0  0  0  0  0  0  0  0  0  0
    1.2216    1.0799    0.0000 S   0  0  0  0  0  0  0  0  0  0  0  0
   -0.2775   -1.2375    0.0000 O   0  0  0  0  0  0  0  0  0  0  0  0
   -1.7065    1.2375    0.0000 C   0  0  0  0  0  0  0  0  0  0  0  0
  3  4  1  0      
  5  6  1  0      
  4  7  1  0      
  7  8  2  0      
  8  9  1  0      
  9  5  1  0      
  5  4  2  0      
  2  3  2  0      
  1  6  2  0      
  1  2  1  0      
  3 10  1  0      
  1 11  1  0      
M  END
$$$$
sidechains.sdf
  ChemDraw12171923412D

  9 10  0  0  0  0  0  0  0  0999 V2000
   -0.7846    0.2751    0.0000 C   0  0  0  0  0  0  0  0  0  0  0  0
   -1.2695   -0.3924    0.0000 C   0  0  0  0  0  0  0  0  0  0  0  0
   -0.7846   -1.0598    0.0000 C   0  0  0  0  0  0  0  0  0  0  0  0
    0.0000   -0.8048    0.0000 C   0  0  0  0  0  0  0  0  0  0  0  0
    0.0000    0.0202    0.0000 N   0  0  0  0  0  0  0  0  0  0  0  0
    0.7846   -1.0597    0.0000 S   0  0  0  0  0  0  0  0  0  0  0  0
    1.2695   -0.3923    0.0000 C   0  0  0  0  0  0  0  0  0  0  0  0
    0.7846    0.2751    0.0000 C   0  0  0  0  0  0  0  0  0  0  0  0
    1.0396    1.0598    0.0000 C   0  0  0  0  0  0  0  0  0  0  0  0
  1  2  2  0      
  2  3  1  0      
  3  4  2  0      
  4  5  1  0      
  5  1  1  0      
  4  6  1  0      
  6  7  1  0      
  7  8  2  0      
  8  5  1  0      
  8  9  1  0      
M  END
$$$$
sidechains.sdf
  ChemDraw12171923412D

 11 12  0  0  0  0  0  0  0  0999 V2000
   -0.9920    0.8250    0.0000 C   0  0  0  0  0  0  0  0  0  0  0  0
   -0.9920    0.0000    0.0000 C   0  0  0  0  0  0  0  0  0  0  0  0
   -0.2775   -0.4125    0.0000 C   0  0  0  0  0  0  0  0  0  0  0  0
    0.4369    0.0000    0.0000 N   0  0  0  0  0  0  0  0  0  0  0  0
    0.4369    0.8250    0.0000 C   0  0  0  0  0  0  0  0  0  0  0  0
   -0.2775    1.2375    0.0000 N   0  0  0  0  0  0  0  0  0  0  0  0
    1.2216   -0.2549    0.0000 C   0  0  0  0  0  0  0  0  0  0  0  0
    1.7065    0.4125    0.0000 C   0  0  0  0  0  0  0  0  0  0  0  0
    1.2216    1.0799    0.0000 C   0  0  0  0  0  0  0  0  0  0  0  0
   -0.2775   -1.2375    0.0000 O   0  0  0  0  0  0  0  0  0  0  0  0
   -1.7065   -0.4125    0.0000 C   0  0  0  0  0  0  0  0  0  0  0  0
  1  2  2  0      
  2  3  1  0      
  3  4  1  0      
  4  5  1  0      
  5  6  1  0      
  6  1  1  0      
  4  7  1  0      
  7  8  2  0      
  8  9  1  0      
  9  5  2  0      
  3 10  2  0      
  2 11  1  0      
M  END
$$$$
sidechains.sdf
  ChemDraw12171923412D

 11 12  0  0  0  0  0  0  0  0999 V2000
    0.0797   -0.4125    0.0000 C   0  0  0  0  0  0  0  0  0  0  0  0
    0.0797    0.4125    0.0000 C   0  0  0  0  0  0  0  0  0  0  0  0
   -0.6348    0.8250    0.0000 C   0  0  0  0  0  0  0  0  0  0  0  0
   -1.3492    0.4125    0.0000 C   0  0  0  0  0  0  0  0  0  0  0  0
   -1.3492   -0.4125    0.0000 N   0  0  0  0  0  0  0  0  0  0  0  0
   -0.6348   -0.8250    0.0000 C   0  0  0  0  0  0  0  0  0  0  0  0
    0.8643   -0.6674    0.0000 N   0  0  0  0  0  0  0  0  0  0  0  0
    1.3492    0.0000    0.0000 C   0  0  0  0  0  0  0  0  0  0  0  0
    0.8643    0.6674    0.0000 N   0  0  0  0  0  0  0  0  0  0  0  0
   -0.6348   -1.6500    0.0000 O   0  0  0  0  0  0  0  0  0  0  0  0
   -0.6348    1.6500    0.0000 C   0  0  0  0  0  0  0  0  0  0  0  0
  1  2  2  0      
  2  3  1  0      
  3  4  2  0      
  4  5  1  0      
  5  6  1  0      
  6  1  1  0      
  1  7  1  0      
  7  8  2  0      
  8  9  1  0      
  9  2  1  0      
  6 10  2  0      
  3 11  1  0      
M  END
$$$$
sidechains.sdf
  ChemDraw12171923412D

 11 12  0  0  0  0  0  0  0  0999 V2000
   -1.3492    0.3135    0.0000 N   0  0  0  0  0  0  0  0  0  0  0  0
   -1.3492   -0.5115    0.0000 N   0  0  0  0  0  0  0  0  0  0  0  0
   -0.6348   -0.9240    0.0000 C   0  0  0  0  0  0  0  0  0  0  0  0
    0.0797   -0.5115    0.0000 C   0  0  0  0  0  0  0  0  0  0  0  0
    0.0797    0.3135    0.0000 C   0  0  0  0  0  0  0  0  0  0  0  0
   -0.6348    0.7260    0.0000 C   0  0  0  0  0  0  0  0  0  0  0  0
    0.8643   -0.7664    0.0000 C   0  0  0  0  0  0  0  0  0  0  0  0
    1.3492   -0.0990    0.0000 O   0  0  0  0  0  0  0  0  0  0  0  0
    0.8643    0.5685    0.0000 N   0  0  0  0  0  0  0  0  0  0  0  0
   -0.6348    1.5510    0.0000 O   0  0  0  0  0  0  0  0  0  0  0  0
    1.1193   -1.5510    0.0000 C   0  0  0  0  0  0  0  0  0  0  0  0
  1  2  1  0      
  2  3  2  0      
  3  4  1  0      
  4  5  1  0      
  5  6  1  0      
  6  1  1  0      
  4  7  2  0      
  7  8  1  0      
  8  9  1  0      
  9  5  2  0      
  6 10  2  0      
  7 11  1  0      
M  END
$$$$
sidechains.sdf
  ChemDraw12171923412D

 11 12  0  0  0  0  0  0  0  0999 V2000
    0.4369    0.0000    0.0000 N   0  0  0  0  0  0  0  0  0  0  0  0
    0.4369    0.8250    0.0000 C   0  0  0  0  0  0  0  0  0  0  0  0
   -0.2775    1.2375    0.0000 N   0  0  0  0  0  0  0  0  0  0  0  0
   -0.9920    0.8250    0.0000 C   0  0  0  0  0  0  0  0  0  0  0  0
   -0.9920    0.0000    0.0000 C   0  0  0  0  0  0  0  0  0  0  0  0
   -0.2775   -0.4125    0.0000 C   0  0  0  0  0  0  0  0  0  0  0  0
    1.2216   -0.2549    0.0000 C   0  0  0  0  0  0  0  0  0  0  0  0
    1.7065    0.4125    0.0000 C   0  0  0  0  0  0  0  0  0  0  0  0
    1.2216    1.0799    0.0000 N   0  0  0  0  0  0  0  0  0  0  0  0
   -0.2775   -1.2375    0.0000 O   0  0  0  0  0  0  0  0  0  0  0  0
   -1.7065    1.2375    0.0000 C   0  0  0  0  0  0  0  0  0  0  0  0
  1  2  1  0      
  2  3  1  0      
  3  4  1  0      
  4  5  2  0      
  5  6  1  0      
  6  1  1  0      
  1  7  1  0      
  7  8  2  0      
  8  9  1  0      
  9  2  2  0      
  6 10  2  0      
  4 11  1  0      
M  END
$$$$
sidechains.sdf
  ChemDraw12171923412D

 11 12  0  0  0  0  0  0  0  0999 V2000
   -0.9920    0.8250    0.0000 C   0  0  0  0  0  0  0  0  0  0  0  0
   -0.9920    0.0000    0.0000 C   0  0  0  0  0  0  0  0  0  0  0  0
   -0.2775   -0.4125    0.0000 C   0  0  0  0  0  0  0  0  0  0  0  0
    0.4369    0.0000    0.0000 C   0  0  0  0  0  0  0  0  0  0  0  0
    0.4369    0.8250    0.0000 C   0  0  0  0  0  0  0  0  0  0  0  0
   -0.2775    1.2375    0.0000 N   0  0  0  0  0  0  0  0  0  0  0  0
    1.2216   -0.2549    0.0000 C   0  0  0  0  0  0  0  0  0  0  0  0
    1.7065    0.4125    0.0000 C   0  0  0  0  0  0  0  0  0  0  0  0
    1.2216    1.0799    0.0000 S   0  0  0  0  0  0  0  0  0  0  0  0
   -1.7065    1.2375    0.0000 O   0  0  0  0  0  0  0  0  0  0  0  0
   -0.2775   -1.2375    0.0000 C   0  0  0  0  0  0  0  0  0  0  0  0
  1  2  1  0      
  2  3  2  0      
  3  4  1  0      
  4  5  2  0      
  5  6  1  0      
  6  1  2  0      
  4  7  1  0      
  7  8  2  0      
  8  9  1  0      
  9  5  1  0      
  1 10  1  0      
  3 11  1  0      
M  END
$$$$
sidechains.sdf
  ChemDraw12171923412D

 11 12  0  0  0  0  0  0  0  0999 V2000
   -1.3492   -0.5115    0.0000 N   0  0  0  0  0  0  0  0  0  0  0  0
   -1.3492    0.3135    0.0000 N   0  0  0  0  0  0  0  0  0  0  0  0
   -0.6348    0.7260    0.0000 C   0  0  0  0  0  0  0  0  0  0  0  0
    0.0797    0.3135    0.0000 C   0  0  0  0  0  0  0  0  0  0  0  0
    0.0797   -0.5115    0.0000 C   0  0  0  0  0  0  0  0  0  0  0  0
   -0.6348   -0.9240    0.0000 C   0  0  0  0  0  0  0  0  0  0  0  0
    0.8643    0.5685    0.0000 N   0  0  0  0  0  0  0  0  0  0  0  0
    1.3492   -0.0990    0.0000 C   0  0  0  0  0  0  0  0  0  0  0  0
    0.8643   -0.7664    0.0000 C   0  0  0  0  0  0  0  0  0  0  0  0
   -0.6348    1.5510    0.0000 O   0  0  0  0  0  0  0  0  0  0  0  0
    1.1193   -1.5510    0.0000 C   0  0  0  0  0  0  0  0  0  0  0  0
  1  2  1  0      
  2  3  1  0      
  3  4  1  0      
  4  5  2  0      
  5  6  1  0      
  6  1  2  0      
  4  7  1  0      
  7  8  1  0      
  8  9  2  0      
  9  5  1  0      
  3 10  2  0      
  9 11  1  0      
M  END
$$$$
sidechains.sdf
  ChemDraw12171923412D

 11 12  0  0  0  0  0  0  0  0999 V2000
   -1.3492    0.3135    0.0000 C   0  0  0  0  0  0  0  0  0  0  0  0
   -1.3492   -0.5115    0.0000 C   0  0  0  0  0  0  0  0  0  0  0  0
   -0.6348   -0.9240    0.0000 N   0  0  0  0  0  0  0  0  0  0  0  0
    0.0797   -0.5115    0.0000 C   0  0  0  0  0  0  0  0  0  0  0  0
    0.0797    0.3135    0.0000 C   0  0  0  0  0  0  0  0  0  0  0  0
   -0.6348    0.7260    0.0000 C   0  0  0  0  0  0  0  0  0  0  0  0
    0.8643   -0.7664    0.0000 C   0  0  0  0  0  0  0  0  0  0  0  0
    1.3492   -0.0990    0.0000 C   0  0  0  0  0  0  0  0  0  0  0  0
    0.8643    0.5685    0.0000 S   0  0  0  0  0  0  0  0  0  0  0  0
   -0.6348    1.5510    0.0000 O   0  0  0  0  0  0  0  0  0  0  0  0
    1.1193   -1.5510    0.0000 C   0  0  0  0  0  0  0  0  0  0  0  0
  2  3  2  0      
  3  4  1  0      
  4  5  2  0      
  5  6  1  0      
  6  1  2  0      
  4  7  1  0      
  7  8  2  0      
  8  9  1  0      
  9  5  1  0      
 10  6  1  0      
  1  2  1  0      
  7 11  1  0      
M  END
$$$$
sidechains.sdf
  ChemDraw12171923412D

 11 12  0  0  0  0  0  0  0  0999 V2000
   -0.9920    0.0000    0.0000 N   0  0  0  0  0  0  0  0  0  0  0  0
   -0.9920   -0.8250    0.0000 C   0  0  0  0  0  0  0  0  0  0  0  0
   -0.2775   -1.2375    0.0000 N   0  0  0  0  0  0  0  0  0  0  0  0
    0.4369   -0.8250    0.0000 C   0  0  0  0  0  0  0  0  0  0  0  0
    0.4369    0.0000    0.0000 C   0  0  0  0  0  0  0  0  0  0  0  0
   -0.2775    0.4125    0.0000 C   0  0  0  0  0  0  0  0  0  0  0  0
    1.2216   -1.0799    0.0000 C   0  0  0  0  0  0  0  0  0  0  0  0
    1.7065   -0.4125    0.0000 N   0  0  0  0  0  0  0  0  0  0  0  0
    1.2216    0.2549    0.0000 N   0  0  0  0  0  0  0  0  0  0  0  0
   -1.7065   -1.2375    0.0000 O   0  0  0  0  0  0  0  0  0  0  0  0
   -0.2775    1.2375    0.0000 C   0  0  0  0  0  0  0  0  0  0  0  0
  1  2  1  0      
  2  3  1  0      
  3  4  1  0      
  4  5  1  0      
  5  6  1  0      
  6  1  2  0      
  4  7  2  0      
  7  8  1  0      
  8  9  1  0      
  9  5  2  0      
  2 10  2  0      
  6 11  1  0      
M  END
$$$$
sidechains.sdf
  ChemDraw12171923412D

 11 12  0  0  0  0  0  0  0  0999 V2000
   -0.9920    0.7260    0.0000 N   0  0  0  0  0  0  0  0  0  0  0  0
   -0.9920   -0.0990    0.0000 C   0  0  0  0  0  0  0  0  0  0  0  0
   -0.2775   -0.5115    0.0000 N   0  0  0  0  0  0  0  0  0  0  0  0
    0.4369   -0.0990    0.0000 C   0  0  0  0  0  0  0  0  0  0  0  0
    0.4369    0.7260    0.0000 C   0  0  0  0  0  0  0  0  0  0  0  0
   -0.2775    1.1385    0.0000 C   0  0  0  0  0  0  0  0  0  0  0  0
    1.2216   -0.3539    0.0000 C   0  0  0  0  0  0  0  0  0  0  0  0
    1.7064    0.3135    0.0000 N   0  0  0  0  0  0  0  0  0  0  0  0
    1.2216    0.9810    0.0000 N   0  0  0  0  0  0  0  0  0  0  0  0
   -1.7064   -0.5115    0.0000 O   0  0  0  0  0  0  0  0  0  0  0  0
    1.4765   -1.1385    0.0000 C   0  0  0  0  0  0  0  0  0  0  0  0
  1  2  1  0      
  2  3  2  0      
  3  4  1  0      
  4  5  1  0      
  5  6  1  0      
  6  1  2  0      
  4  7  2  0      
  7  8  1  0      
  8  9  1  0      
  9  5  2  0      
  2 10  1  0      
  7 11  1  0      
M  END
$$$$
sidechains.sdf
  ChemDraw12171923412D

  9 10  0  0  0  0  0  0  0  0999 V2000
   -1.6820   -0.0001    0.0000 C   0  0  0  0  0  0  0  0  0  0  0  0
   -1.1970   -0.6676    0.0000 S   0  0  0  0  0  0  0  0  0  0  0  0
   -0.4125   -0.4125    0.0000 C   0  0  0  0  0  0  0  0  0  0  0  0
   -0.4125    0.4125    0.0000 C   0  0  0  0  0  0  0  0  0  0  0  0
   -1.1972    0.6674    0.0000 N   0  0  0  0  0  0  0  0  0  0  0  0
    0.3722   -0.6674    0.0000 C   0  0  0  0  0  0  0  0  0  0  0  0
    0.8570    0.0001    0.0000 N   0  0  0  0  0  0  0  0  0  0  0  0
    0.3720    0.6676    0.0000 N   0  0  0  0  0  0  0  0  0  0  0  0
    1.6820    0.0001    0.0000 C   0  0  0  0  0  0  0  0  0  0  0  0
  1  2  1  0      
  2  3  1  0      
  3  4  1  0      
  4  5  1  0      
  5  1  2  0      
  3  6  2  0      
  6  7  1  0      
  7  8  1  0      
  8  4  2  0      
  7  9  1  0      
M  END
$$$$
sidechains.sdf
  ChemDraw12171923412D

 11 12  0  0  0  0  0  0  0  0999 V2000
   -1.3492    0.4125    0.0000 C   0  0  0  0  0  0  0  0  0  0  0  0
   -1.3492   -0.4125    0.0000 N   0  0  0  0  0  0  0  0  0  0  0  0
   -0.6348   -0.8250    0.0000 C   0  0  0  0  0  0  0  0  0  0  0  0
    0.0797   -0.4125    0.0000 C   0  0  0  0  0  0  0  0  0  0  0  0
    0.0797    0.4125    0.0000 C   0  0  0  0  0  0  0  0  0  0  0  0
   -0.6348    0.8250    0.0000 C   0  0  0  0  0  0  0  0  0  0  0  0
    0.8643   -0.6674    0.0000 C   0  0  0  0  0  0  0  0  0  0  0  0
    1.3492    0.0000    0.0000 C   0  0  0  0  0  0  0  0  0  0  0  0
    0.8643    0.6674    0.0000 O   0  0  0  0  0  0  0  0  0  0  0  0
   -0.6348   -1.6500    0.0000 O   0  0  0  0  0  0  0  0  0  0  0  0
   -0.6348    1.6500    0.0000 C   0  0  0  0  0  0  0  0  0  0  0  0
  1  2  1  0      
  2  3  1  0      
  3  4  1  0      
  4  5  2  0      
  5  6  1  0      
  6  1  2  0      
  4  7  1  0      
  7  8  2  0      
  8  9  1  0      
  9  5  1  0      
  3 10  2  0      
  6 11  1  0      
M  END
$$$$
sidechains.sdf
  ChemDraw12171923412D

 11 12  0  0  0  0  0  0  0  0999 V2000
   -1.3492    0.4125    0.0000 N   0  0  0  0  0  0  0  0  0  0  0  0
   -1.3492   -0.4125    0.0000 N   0  0  0  0  0  0  0  0  0  0  0  0
   -0.6348   -0.8250    0.0000 C   0  0  0  0  0  0  0  0  0  0  0  0
    0.0797   -0.4125    0.0000 C   0  0  0  0  0  0  0  0  0  0  0  0
    0.0797    0.4125    0.0000 C   0  0  0  0  0  0  0  0  0  0  0  0
   -0.6348    0.8250    0.0000 C   0  0  0  0  0  0  0  0  0  0  0  0
    0.8643   -0.6674    0.0000 C   0  0  0  0  0  0  0  0  0  0  0  0
    1.3492    0.0000    0.0000 N   0  0  0  0  0  0  0  0  0  0  0  0
    0.8643    0.6674    0.0000 O   0  0  0  0  0  0  0  0  0  0  0  0
   -0.6348   -1.6500    0.0000 O   0  0  0  0  0  0  0  0  0  0  0  0
   -0.6348    1.6500    0.0000 C   0  0  0  0  0  0  0  0  0  0  0  0
  1  2  1  0      
  2  3  1  0      
  3  4  1  0      
  4  5  2  0      
  5  6  1  0      
  6  1  2  0      
  4  7  1  0      
  7  8  2  0      
  8  9  1  0      
  9  5  1  0      
  3 10  2  0      
  6 11  1  0      
M  END
$$$$
sidechains.sdf
  ChemDraw12171923412D

  9 10  0  0  0  0  0  0  0  0999 V2000
   -1.2695    0.3923    0.0000 S   0  0  0  0  0  0  0  0  0  0  0  0
   -0.7847   -0.2751    0.0000 C   0  0  0  0  0  0  0  0  0  0  0  0
   -0.0000   -0.0202    0.0000 C   0  0  0  0  0  0  0  0  0  0  0  0
   -0.0000    0.8048    0.0000 C   0  0  0  0  0  0  0  0  0  0  0  0
   -0.7846    1.0598    0.0000 C   0  0  0  0  0  0  0  0  0  0  0  0
    0.7846   -0.2752    0.0000 C   0  0  0  0  0  0  0  0  0  0  0  0
    1.2695    0.3923    0.0000 C   0  0  0  0  0  0  0  0  0  0  0  0
    0.7847    1.0598    0.0000 O   0  0  0  0  0  0  0  0  0  0  0  0
    1.0395   -1.0598    0.0000 C   0  0  0  0  0  0  0  0  0  0  0  0
  1  2  1  0      
  2  3  2  0      
  3  4  1  0      
  4  5  2  0      
  5  1  1  0      
  3  6  1  0      
  6  7  2  0      
  7  8  1  0      
  8  4  1  0      
  6  9  1  0      
M  END
$$$$
sidechains.sdf
  ChemDraw12171923412D

  9 10  0  0  0  0  0  0  0  0999 V2000
   -0.7846    1.0597    0.0000 S   0  0  0  0  0  0  0  0  0  0  0  0
   -1.2695    0.3924    0.0000 C   0  0  0  0  0  0  0  0  0  0  0  0
   -0.7846   -0.2751    0.0000 C   0  0  0  0  0  0  0  0  0  0  0  0
    0.0000   -0.0203    0.0000 C   0  0  0  0  0  0  0  0  0  0  0  0
    0.0000    0.8048    0.0000 C   0  0  0  0  0  0  0  0  0  0  0  0
    0.7846   -0.2753    0.0000 C   0  0  0  0  0  0  0  0  0  0  0  0
    1.2695    0.3922    0.0000 N   0  0  0  0  0  0  0  0  0  0  0  0
    0.7846    1.0596    0.0000 S   0  0  0  0  0  0  0  0  0  0  0  0
   -1.0397   -1.0597    0.0000 C   0  0  0  0  0  0  0  0  0  0  0  0
  1  2  1  0      
  2  3  2  0      
  3  4  1  0      
  4  5  2  0      
  5  1  1  0      
  4  6  1  0      
  6  7  2  0      
  7  8  1  0      
  8  5  1  0      
  3  9  1  0      
M  END
$$$$
sidechains.sdf
  ChemDraw12171923412D

 11 12  0  0  0  0  0  0  0  0999 V2000
   -0.1813    1.1854    0.0000 C   0  0  0  0  0  0  0  0  0  0  0  0
   -0.3528    0.3784    0.0000 C   0  0  0  0  0  0  0  0  0  0  0  0
    0.3617   -0.0341    0.0000 N   0  0  0  0  0  0  0  0  0  0  0  0
    0.9748    0.5179    0.0000 C   0  0  0  0  0  0  0  0  0  0  0  0
    0.6392    1.2716    0.0000 C   0  0  0  0  0  0  0  0  0  0  0  0
   -1.0673   -0.0341    0.0000 C   0  0  0  0  0  0  0  0  0  0  0  0
   -1.0673   -0.8591    0.0000 O   0  0  0  0  0  0  0  0  0  0  0  0
   -0.3528   -1.2716    0.0000 C   0  0  0  0  0  0  0  0  0  0  0  0
    0.3617   -0.8591    0.0000 C   0  0  0  0  0  0  0  0  0  0  0  0
    1.7817    0.3464    0.0000 O   0  0  0  0  0  0  0  0  0  0  0  0
   -1.7817    0.3784    0.0000 C   0  0  0  0  0  0  0  0  0  0  0  0
  1  2  1  0      
  2  3  1  0      
  3  4  1  0      
  4  5  1  0      
  5  1  2  0      
  2  6  2  0      
  6  7  1  0      
  7  8  1  0      
  8  9  2  0      
  9  3  1  0      
  4 10  2  0      
  6 11  1  0      
M  END
$$$$
sidechains.sdf
  ChemDraw12171923412D

 11 12  0  0  0  0  0  0  0  0999 V2000
    0.2222    1.5979    0.0000 C   0  0  0  0  0  0  0  0  0  0  0  0
    0.0507    0.7909    0.0000 N   0  0  0  0  0  0  0  0  0  0  0  0
    0.7652    0.3784    0.0000 C   0  0  0  0  0  0  0  0  0  0  0  0
    1.3782    0.9305    0.0000 C   0  0  0  0  0  0  0  0  0  0  0  0
    1.0427    1.6841    0.0000 C   0  0  0  0  0  0  0  0  0  0  0  0
   -0.6638    0.3784    0.0000 C   0  0  0  0  0  0  0  0  0  0  0  0
   -0.6638   -0.4466    0.0000 C   0  0  0  0  0  0  0  0  0  0  0  0
    0.0507   -0.8591    0.0000 C   0  0  0  0  0  0  0  0  0  0  0  0
    0.7652   -0.4465    0.0000 O   0  0  0  0  0  0  0  0  0  0  0  0
   -1.3782    0.7909    0.0000 O   0  0  0  0  0  0  0  0  0  0  0  0
    0.0507   -1.6841    0.0000 C   0  0  0  0  0  0  0  0  0  0  0  0
  1  2  1  0      
  2  3  1  0      
  3  4  2  0      
  4  5  1  0      
  5  1  2  0      
  2  6  1  0      
  6  7  1  0      
  7  8  2  0      
  8  9  1  0      
  9  3  1  0      
  6 10  2  0      
  8 11  1  0      
M  END
$$$$
sidechains.sdf
  ChemDraw12171923412D

 11 12  0  0  0  0  0  0  0  0999 V2000
   -1.3492    0.3135    0.0000 N   0  0  0  0  0  0  0  0  0  0  0  0
   -1.3492   -0.5115    0.0000 C   0  0  0  0  0  0  0  0  0  0  0  0
   -0.6348   -0.9240    0.0000 C   0  0  0  0  0  0  0  0  0  0  0  0
    0.0797   -0.5115    0.0000 N   0  0  0  0  0  0  0  0  0  0  0  0
    0.0797    0.3135    0.0000 C   0  0  0  0  0  0  0  0  0  0  0  0
   -0.6348    0.7260    0.0000 C   0  0  0  0  0  0  0  0  0  0  0  0
    0.8643   -0.7664    0.0000 C   0  0  0  0  0  0  0  0  0  0  0  0
    1.3492   -0.0990    0.0000 C   0  0  0  0  0  0  0  0  0  0  0  0
    0.8643    0.5685    0.0000 C   0  0  0  0  0  0  0  0  0  0  0  0
   -0.6348    1.5510    0.0000 O   0  0  0  0  0  0  0  0  0  0  0  0
    1.1193   -1.5510    0.0000 C   0  0  0  0  0  0  0  0  0  0  0  0
  1  2  1  0      
  2  3  2  0      
  3  4  1  0      
  4  5  1  0      
  5  6  1  0      
  6  1  1  0      
  4  7  1  0      
  7  8  2  0      
  8  9  1  0      
  9  5  2  0      
  6 10  2  0      
  7 11  1  0      
M  END
$$$$
sidechains.sdf
  ChemDraw12171923412D

 11 12  0  0  0  0  0  0  0  0999 V2000
   -1.3492    0.4125    0.0000 C   0  0  0  0  0  0  0  0  0  0  0  0
   -1.3492   -0.4125    0.0000 C   0  0  0  0  0  0  0  0  0  0  0  0
   -0.6348   -0.8250    0.0000 C   0  0  0  0  0  0  0  0  0  0  0  0
    0.0797   -0.4125    0.0000 N   0  0  0  0  0  0  0  0  0  0  0  0
    0.0797    0.4125    0.0000 C   0  0  0  0  0  0  0  0  0  0  0  0
   -0.6348    0.8250    0.0000 C   0  0  0  0  0  0  0  0  0  0  0  0
    0.8643   -0.6674    0.0000 C   0  0  0  0  0  0  0  0  0  0  0  0
    1.3492    0.0000    0.0000 C   0  0  0  0  0  0  0  0  0  0  0  0
    0.8643    0.6674    0.0000 S   0  0  0  0  0  0  0  0  0  0  0  0
   -0.6348   -1.6500    0.0000 O   0  0  0  0  0  0  0  0  0  0  0  0
   -0.6348    1.6500    0.0000 C   0  0  0  0  0  0  0  0  0  0  0  0
  1  2  2  0      
  2  3  1  0      
  3  4  1  0      
  4  5  1  0      
  5  6  2  0      
  6  1  1  0      
  4  7  1  0      
  7  8  2  0      
  8  9  1  0      
  9  5  1  0      
  3 10  2  0      
  6 11  1  0      
M  END
$$$$
sidechains.sdf
  ChemDraw12171923412D

  9 10  0  0  0  0  0  0  0  0999 V2000
   -1.1972    0.6674    0.0000 C   0  0  0  0  0  0  0  0  0  0  0  0
   -1.6820   -0.0001    0.0000 C   0  0  0  0  0  0  0  0  0  0  0  0
   -1.1971   -0.6675    0.0000 S   0  0  0  0  0  0  0  0  0  0  0  0
   -0.4125   -0.4125    0.0000 C   0  0  0  0  0  0  0  0  0  0  0  0
   -0.4125    0.4125    0.0000 C   0  0  0  0  0  0  0  0  0  0  0  0
    0.3721   -0.6674    0.0000 S   0  0  0  0  0  0  0  0  0  0  0  0
    0.8570    0.0001    0.0000 C   0  0  0  0  0  0  0  0  0  0  0  0
    0.3721    0.6675    0.0000 N   0  0  0  0  0  0  0  0  0  0  0  0
    1.6820    0.0001    0.0000 C   0  0  0  0  0  0  0  0  0  0  0  0
  1  2  2  0      
  2  3  1  0      
  3  4  1  0      
  4  5  2  0      
  5  1  1  0      
  4  6  1  0      
  6  7  1  0      
  7  8  2  0      
  8  5  1  0      
  7  9  1  0      
M  END
$$$$
sidechains.sdf
  ChemDraw12171923412D

  9 10  0  0  0  0  0  0  0  0999 V2000
   -0.7846    1.0597    0.0000 C   0  0  0  0  0  0  0  0  0  0  0  0
   -1.2695    0.3922    0.0000 C   0  0  0  0  0  0  0  0  0  0  0  0
   -0.7846   -0.2752    0.0000 O   0  0  0  0  0  0  0  0  0  0  0  0
    0.0000   -0.0202    0.0000 C   0  0  0  0  0  0  0  0  0  0  0  0
    0.0000    0.8048    0.0000 C   0  0  0  0  0  0  0  0  0  0  0  0
    0.7847   -0.2751    0.0000 C   0  0  0  0  0  0  0  0  0  0  0  0
    1.2695    0.3923    0.0000 N   0  0  0  0  0  0  0  0  0  0  0  0
    0.7846    1.0597    0.0000 N   0  0  0  0  0  0  0  0  0  0  0  0
    1.0396   -1.0597    0.0000 C   0  0  0  0  0  0  0  0  0  0  0  0
  1  2  2  0      
  2  3  1  0      
  3  4  1  0      
  4  5  2  0      
  5  1  1  0      
  4  6  1  0      
  6  7  2  0      
  7  8  1  0      
  8  5  1  0      
  6  9  1  0      
M  END
$$$$
sidechains.sdf
  ChemDraw12171923412D

 15 17  0  0  0  0  0  0  0  0999 V2000
    2.1434    0.0000    0.0000 C   0  0  0  0  0  0  0  0  0  0  0  0
    2.1434   -0.8250    0.0000 C   0  0  0  0  0  0  0  0  0  0  0  0
    1.4289   -1.2375    0.0000 C   0  0  0  0  0  0  0  0  0  0  0  0
    0.7145   -0.8250    0.0000 C   0  0  0  0  0  0  0  0  0  0  0  0
    0.7145    0.0000    0.0000 C   0  0  0  0  0  0  0  0  0  0  0  0
    1.4289    0.4125    0.0000 C   0  0  0  0  0  0  0  0  0  0  0  0
    0.0000   -1.2375    0.0000 S   0  0  0  0  0  0  0  0  0  0  0  0
   -0.7145   -0.8250    0.0000 C   0  0  0  0  0  0  0  0  0  0  0  0
   -0.7145    0.0000    0.0000 C   0  0  0  0  0  0  0  0  0  0  0  0
    0.0000    0.4125    0.0000 N   0  0  0  0  0  0  0  0  0  0  0  0
   -1.4289   -1.2375    0.0000 C   0  0  0  0  0  0  0  0  0  0  0  0
   -2.1434   -0.8250    0.0000 C   0  0  0  0  0  0  0  0  0  0  0  0
   -2.1434    0.0000    0.0000 C   0  0  0  0  0  0  0  0  0  0  0  0
   -1.4289    0.4125    0.0000 C   0  0  0  0  0  0  0  0  0  0  0  0
    0.0000    1.2375    0.0000 C   0  0  0  0  0  0  0  0  0  0  0  0
  1  2  2  0      
  2  3  1  0      
  3  4  2  0      
  4  5  1  0      
  5  6  2  0      
  6  1  1  0      
  4  7  1  0      
  7  8  1  0      
  8  9  2  0      
  9 10  1  0      
 10  5  1  0      
  8 11  1  0      
 11 12  2  0      
 12 13  1  0      
 13 14  2  0      
 14  9  1  0      
 10 15  1  0      
M  END
$$$$
sidechains.sdf
  ChemDraw12171923412D

 10 11  0  0  0  0  0  0  0  0999 V2000
   -1.3492    0.0990    0.0000 C   0  0  0  0  0  0  0  0  0  0  0  0
   -1.3492   -0.7260    0.0000 C   0  0  0  0  0  0  0  0  0  0  0  0
   -0.6348   -1.1385    0.0000 C   0  0  0  0  0  0  0  0  0  0  0  0
    0.0797   -0.7260    0.0000 N   0  0  0  0  0  0  0  0  0  0  0  0
    0.0797    0.0990    0.0000 C   0  0  0  0  0  0  0  0  0  0  0  0
   -0.6348    0.5115    0.0000 C   0  0  0  0  0  0  0  0  0  0  0  0
    0.8643   -0.9810    0.0000 C   0  0  0  0  0  0  0  0  0  0  0  0
    1.3492   -0.3135    0.0000 C   0  0  0  0  0  0  0  0  0  0  0  0
    0.8643    0.3539    0.0000 C   0  0  0  0  0  0  0  0  0  0  0  0
    1.1193    1.1385    0.0000 C   0  0  0  0  0  0  0  0  0  0  0  0
  1  2  1  0      
  2  3  2  0      
  3  4  1  0      
  4  5  1  0      
  5  6  1  0      
  6  1  2  0      
  4  7  1  0      
  7  8  2  0      
  8  9  1  0      
  9  5  2  0      
  9 10  1  0      
M  END
$$$$
sidechains.sdf
  ChemDraw12171923412D

 11 12  0  0  0  0  0  0  0  0999 V2000
   -1.5385    0.2626    0.0000 C   0  0  0  0  0  0  0  0  0  0  0  0
   -1.1804   -0.4808    0.0000 C   0  0  0  0  0  0  0  0  0  0  0  0
   -0.3761   -0.6643    0.0000 C   0  0  0  0  0  0  0  0  0  0  0  0
    0.2689   -0.1499    0.0000 C   0  0  0  0  0  0  0  0  0  0  0  0
    0.2689    0.6751    0.0000 C   0  0  0  0  0  0  0  0  0  0  0  0
   -0.3762    1.1895    0.0000 C   0  0  0  0  0  0  0  0  0  0  0  0
   -1.1805    1.0059    0.0000 C   0  0  0  0  0  0  0  0  0  0  0  0
    1.0535   -0.4049    0.0000 C   0  0  0  0  0  0  0  0  0  0  0  0
    1.5385    0.2626    0.0000 C   0  0  0  0  0  0  0  0  0  0  0  0
    1.0534    0.9301    0.0000 C   0  0  0  0  0  0  0  0  0  0  0  0
    1.3085   -1.1895    0.0000 C   0  0  0  0  0  0  0  0  0  0  0  0
  1  2  1  0      
  2  3  2  0      
  3  4  1  0      
  4  5  1  0      
  5  6  2  0      
  6  7  1  0      
  7  1  2  0      
  4  8  2  0      
  8  9  1  0      
  9 10  2  0      
 10  5  1  0      
  8 11  1  0      
M  END
$$$$
sidechains.sdf
  ChemDraw12171923412D

  9 10  0  0  0  0  0  0  0  0999 V2000
   -0.7846    1.0597    0.0000 C   0  0  0  0  0  0  0  0  0  0  0  0
   -1.2695    0.3922    0.0000 C   0  0  0  0  0  0  0  0  0  0  0  0
   -0.7846   -0.2752    0.0000 O   0  0  0  0  0  0  0  0  0  0  0  0
    0.0000   -0.0202    0.0000 C   0  0  0  0  0  0  0  0  0  0  0  0
    0.0000    0.8048    0.0000 C   0  0  0  0  0  0  0  0  0  0  0  0
    0.7847   -0.2751    0.0000 C   0  0  0  0  0  0  0  0  0  0  0  0
    1.2695    0.3923    0.0000 N   0  0  0  0  0  0  0  0  0  0  0  0
    0.7846    1.0597    0.0000 N   0  0  0  0  0  0  0  0  0  0  0  0
    1.0396   -1.0597    0.0000 C   0  0  0  0  0  0  0  0  0  0  0  0
  1  2  2  0      
  2  3  1  0      
  3  4  1  0      
  4  5  1  0      
  5  1  1  0      
  4  6  2  0      
  6  7  1  0      
  7  8  1  0      
  8  5  2  0      
  6  9  1  0      
M  END
$$$$
sidechains.sdf
  ChemDraw12171923412D

 11 12  0  0  0  0  0  0  0  0999 V2000
   -1.3492    0.4125    0.0000 N   0  0  0  0  0  0  0  0  0  0  0  0
   -1.3492   -0.4125    0.0000 C   0  0  0  0  0  0  0  0  0  0  0  0
   -0.6348   -0.8250    0.0000 C   0  0  0  0  0  0  0  0  0  0  0  0
    0.0797   -0.4125    0.0000 N   0  0  0  0  0  0  0  0  0  0  0  0
    0.0797    0.4125    0.0000 C   0  0  0  0  0  0  0  0  0  0  0  0
   -0.6348    0.8250    0.0000 C   0  0  0  0  0  0  0  0  0  0  0  0
    0.8643   -0.6674    0.0000 C   0  0  0  0  0  0  0  0  0  0  0  0
    1.3492    0.0000    0.0000 C   0  0  0  0  0  0  0  0  0  0  0  0
    0.8643    0.6674    0.0000 C   0  0  0  0  0  0  0  0  0  0  0  0
   -0.6348    1.6500    0.0000 O   0  0  0  0  0  0  0  0  0  0  0  0
   -0.6348   -1.6500    0.0000 C   0  0  0  0  0  0  0  0  0  0  0  0
  1  2  1  0      
  2  3  2  0      
  3  4  1  0      
  4  5  1  0      
  5  6  1  0      
  6  1  1  0      
  4  7  1  0      
  7  8  2  0      
  8  9  1  0      
  9  5  2  0      
  6 10  2  0      
  3 11  1  0      
M  END
$$$$
sidechains.sdf
  ChemDraw12171923412D

  9 10  0  0  0  0  0  0  0  0999 V2000
   -0.7846    0.2751    0.0000 C   0  0  0  0  0  0  0  0  0  0  0  0
   -1.2695   -0.3924    0.0000 C   0  0  0  0  0  0  0  0  0  0  0  0
   -0.7846   -1.0598    0.0000 O   0  0  0  0  0  0  0  0  0  0  0  0
    0.0000   -0.8048    0.0000 C   0  0  0  0  0  0  0  0  0  0  0  0
    0.0000    0.0202    0.0000 C   0  0  0  0  0  0  0  0  0  0  0  0
    0.7847   -1.0596    0.0000 C   0  0  0  0  0  0  0  0  0  0  0  0
    1.2695   -0.3923    0.0000 N   0  0  0  0  0  0  0  0  0  0  0  0
    0.7846    0.2752    0.0000 N   0  0  0  0  0  0  0  0  0  0  0  0
    1.0396    1.0598    0.0000 C   0  0  0  0  0  0  0  0  0  0  0  0
  1  2  2  0      
  2  3  1  0      
  3  4  1  0      
  4  5  2  0      
  5  1  1  0      
  4  6  1  0      
  6  7  2  0      
  7  8  1  0      
  8  5  1  0      
  8  9  1  0      
M  END
$$$$
sidechains.sdf
  ChemDraw12171923412D

 10 11  0  0  0  0  0  0  0  0999 V2000
   -1.3493    0.8250    0.0000 C   0  0  0  0  0  0  0  0  0  0  0  0
   -1.3493    0.0000    0.0000 C   0  0  0  0  0  0  0  0  0  0  0  0
   -0.6348   -0.4125    0.0000 C   0  0  0  0  0  0  0  0  0  0  0  0
    0.0797    0.0000    0.0000 N   0  0  0  0  0  0  0  0  0  0  0  0
    0.0797    0.8250    0.0000 C   0  0  0  0  0  0  0  0  0  0  0  0
   -0.6348    1.2375    0.0000 C   0  0  0  0  0  0  0  0  0  0  0  0
    0.8643   -0.2549    0.0000 C   0  0  0  0  0  0  0  0  0  0  0  0
    1.3493    0.4125    0.0000 C   0  0  0  0  0  0  0  0  0  0  0  0
    0.8643    1.0799    0.0000 C   0  0  0  0  0  0  0  0  0  0  0  0
   -0.6348   -1.2375    0.0000 C   0  0  0  0  0  0  0  0  0  0  0  0
  1  2  1  0      
  2  3  2  0      
  3  4  1  0      
  4  5  1  0      
  5  6  1  0      
  6  1  2  0      
  4  7  1  0      
  7  8  2  0      
  8  9  1  0      
  9  5  2  0      
  3 10  1  0      
M  END
$$$$
sidechains.sdf
  ChemDraw12171923412D

 11 12  0  0  0  0  0  0  0  0999 V2000
    1.5613    0.0760    0.0000 C   0  0  0  0  0  0  0  0  0  0  0  0
    1.0522    0.7252    0.0000 C   0  0  0  0  0  0  0  0  0  0  0  0
    0.2354    0.6088    0.0000 C   0  0  0  0  0  0  0  0  0  0  0  0
   -0.0722   -0.1567    0.0000 C   0  0  0  0  0  0  0  0  0  0  0  0
    0.4370   -0.8058    0.0000 C   0  0  0  0  0  0  0  0  0  0  0  0
    1.2537   -0.6895    0.0000 C   0  0  0  0  0  0  0  0  0  0  0  0
   -0.8468   -0.4403    0.0000 C   0  0  0  0  0  0  0  0  0  0  0  0
   -0.8165   -1.2648    0.0000 C   0  0  0  0  0  0  0  0  0  0  0  0
   -0.0231   -1.4907    0.0000 N   0  0  0  0  0  0  0  0  0  0  0  0
   -1.5613   -0.0278    0.0000 C   0  0  0  0  0  0  0  0  0  0  0  0
    1.3598    1.4907    0.0000 Br  0  0  0  0  0  0  0  0  0  0  0  0
  1  2  2  0      
  2  3  1  0      
  3  4  2  0      
  4  5  1  0      
  5  6  2  0      
  6  1  1  0      
  4  7  1  0      
  7  8  2  0      
  8  9  1  0      
  9  5  1  0      
  7 10  1  0      
  2 11  1  0      
M  END
$$$$
sidechains.sdf
  ChemDraw12171923412D

 11 12  0  0  0  0  0  0  0  0999 V2000
    1.5613    0.0760    0.0000 C   0  0  0  0  0  0  0  0  0  0  0  0
    1.0522    0.7252    0.0000 C   0  0  0  0  0  0  0  0  0  0  0  0
    0.2354    0.6088    0.0000 C   0  0  0  0  0  0  0  0  0  0  0  0
   -0.0722   -0.1567    0.0000 C   0  0  0  0  0  0  0  0  0  0  0  0
    0.4370   -0.8058    0.0000 C   0  0  0  0  0  0  0  0  0  0  0  0
    1.2537   -0.6895    0.0000 C   0  0  0  0  0  0  0  0  0  0  0  0
   -0.8468   -0.4403    0.0000 C   0  0  0  0  0  0  0  0  0  0  0  0
   -0.8165   -1.2648    0.0000 C   0  0  0  0  0  0  0  0  0  0  0  0
   -0.0231   -1.4907    0.0000 N   0  0  0  0  0  0  0  0  0  0  0  0
   -1.5613   -0.0278    0.0000 C   0  0  0  0  0  0  0  0  0  0  0  0
    1.3598    1.4907    0.0000 F   0  0  0  0  0  0  0  0  0  0  0  0
  1  2  2  0      
  2  3  1  0      
  3  4  2  0      
  4  5  1  0      
  5  6  2  0      
  6  1  1  0      
  4  7  1  0      
  7  8  2  0      
  8  9  1  0      
  9  5  1  0      
  7 10  1  0      
  2 11  1  0      
M  END
$$$$
sidechains.sdf
  ChemDraw12171923412D

  9 10  0  0  0  0  0  0  0  0999 V2000
   -1.1970    0.6676    0.0000 C   0  0  0  0  0  0  0  0  0  0  0  0
   -1.6820    0.0001    0.0000 C   0  0  0  0  0  0  0  0  0  0  0  0
   -1.1972   -0.6674    0.0000 O   0  0  0  0  0  0  0  0  0  0  0  0
   -0.4125   -0.4125    0.0000 C   0  0  0  0  0  0  0  0  0  0  0  0
   -0.4125    0.4125    0.0000 C   0  0  0  0  0  0  0  0  0  0  0  0
    0.3720   -0.6676    0.0000 C   0  0  0  0  0  0  0  0  0  0  0  0
    0.8570   -0.0001    0.0000 N   0  0  0  0  0  0  0  0  0  0  0  0
    0.3722    0.6674    0.0000 N   0  0  0  0  0  0  0  0  0  0  0  0
    1.6820   -0.0001    0.0000 C   0  0  0  0  0  0  0  0  0  0  0  0
  1  2  2  0      
  2  3  1  0      
  3  4  1  0      
  4  5  1  0      
  5  1  1  0      
  4  6  2  0      
  6  7  1  0      
  7  8  1  0      
  8  5  2  0      
  7  9  1  0      
M  END
$$$$
sidechains.sdf
  ChemDraw12171923412D

  7  7  0  0  0  0  0  0  0  0999 V2000
   -0.3572    0.8250    0.0000 C   0  0  0  0  0  0  0  0  0  0  0  0
   -1.0717    0.4125    0.0000 C   0  0  0  0  0  0  0  0  0  0  0  0
   -1.0717   -0.4125    0.0000 C   0  0  0  0  0  0  0  0  0  0  0  0
   -0.3572   -0.8250    0.0000 C   0  0  0  0  0  0  0  0  0  0  0  0
    0.3572   -0.4125    0.0000 C   0  0  0  0  0  0  0  0  0  0  0  0
    0.3572    0.4125    0.0000 C   0  0  0  0  0  0  0  0  0  0  0  0
    1.0717    0.8250    0.0000 C   0  0  0  0  0  0  0  0  0  0  0  0
  1  2  2  0      
  2  3  1  0      
  3  4  2  0      
  4  5  1  0      
  5  6  2  0      
  6  1  1  0      
  6  7  1  0      
M  END
$$$$
sidechains.sdf
  ChemDraw12171923412D

  9 10  0  0  0  0  0  0  0  0999 V2000
   -1.2695    0.3923    0.0000 C   0  0  0  0  0  0  0  0  0  0  0  0
   -0.7847   -0.2751    0.0000 C   0  0  0  0  0  0  0  0  0  0  0  0
    0.0000   -0.0202    0.0000 C   0  0  0  0  0  0  0  0  0  0  0  0
    0.0000    0.8048    0.0000 C   0  0  0  0  0  0  0  0  0  0  0  0
   -0.7846    1.0598    0.0000 O   0  0  0  0  0  0  0  0  0  0  0  0
    0.7846   -0.2752    0.0000 N   0  0  0  0  0  0  0  0  0  0  0  0
    1.2695    0.3923    0.0000 C   0  0  0  0  0  0  0  0  0  0  0  0
    0.7847    1.0598    0.0000 C   0  0  0  0  0  0  0  0  0  0  0  0
    1.0395   -1.0598    0.0000 C   0  0  0  0  0  0  0  0  0  0  0  0
  1  2  2  0      
  2  3  1  0      
  3  4  2  0      
  4  5  1  0      
  5  1  1  0      
  3  6  1  0      
  6  7  1  0      
  7  8  2  0      
  8  4  1  0      
  6  9  1  0      
M  END
$$$$
sidechains.sdf
  ChemDraw12171923412D

 12 13  0  0  0  0  0  0  0  0999 V2000
   -1.0717   -1.2375    0.0000 C   0  0  0  0  0  0  0  0  0  0  0  0
   -1.0717   -0.4125    0.0000 C   0  0  0  0  0  0  0  0  0  0  0  0
   -1.7861    0.0000    0.0000 C   0  0  0  0  0  0  0  0  0  0  0  0
   -1.7861    0.8250    0.0000 C   0  0  0  0  0  0  0  0  0  0  0  0
   -1.0717    1.2375    0.0000 C   0  0  0  0  0  0  0  0  0  0  0  0
   -0.3572    0.8250    0.0000 C   0  0  0  0  0  0  0  0  0  0  0  0
    0.3572    1.2375    0.0000 C   0  0  0  0  0  0  0  0  0  0  0  0
    1.0717    0.8250    0.0000 N   0  0  0  0  0  0  0  0  0  0  0  0
    1.0717    0.0000    0.0000 C   0  0  0  0  0  0  0  0  0  0  0  0
    1.7861   -0.4125    0.0000 O   0  0  0  0  0  0  0  0  0  0  0  0
    0.3572   -0.4125    0.0000 C   0  0  0  0  0  0  0  0  0  0  0  0
   -0.3572    0.0000    0.0000 C   0  0  0  0  0  0  0  0  0  0  0  0
  1  2  1  0      
  2  3  2  0      
  3  4  1  0      
  4  5  2  0      
  5  6  1  0      
  6  7  2  0      
  7  8  1  0      
  8  9  2  0      
  9 10  1  0      
  9 11  1  0      
 11 12  2  0      
  2 12  1  0      
  6 12  1  0      
M  END
$$$$
sidechains.sdf
  ChemDraw12171923412D

 12 13  0  0  0  0  0  0  0  0999 V2000
    0.3572    1.2375    0.0000 C   0  0  0  0  0  0  0  0  0  0  0  0
    0.3572    0.4125    0.0000 C   0  0  0  0  0  0  0  0  0  0  0  0
   -0.3572    0.0000    0.0000 C   0  0  0  0  0  0  0  0  0  0  0  0
   -1.0717    0.4125    0.0000 C   0  0  0  0  0  0  0  0  0  0  0  0
   -1.7861    0.0000    0.0000 C   0  0  0  0  0  0  0  0  0  0  0  0
   -1.7861   -0.8250    0.0000 C   0  0  0  0  0  0  0  0  0  0  0  0
   -1.0717   -1.2375    0.0000 C   0  0  0  0  0  0  0  0  0  0  0  0
   -0.3572   -0.8250    0.0000 C   0  0  0  0  0  0  0  0  0  0  0  0
    0.3572   -1.2375    0.0000 C   0  0  0  0  0  0  0  0  0  0  0  0
    1.0717   -0.8250    0.0000 C   0  0  0  0  0  0  0  0  0  0  0  0
    1.7861   -1.2375    0.0000 O   0  0  0  0  0  0  0  0  0  0  0  0
    1.0717    0.0000    0.0000 N   0  0  0  0  0  0  0  0  0  0  0  0
  1  2  1  0      
  2  3  2  0      
  3  4  1  0      
  4  5  2  0      
  5  6  1  0      
  6  7  2  0      
  7  8  1  0      
  3  8  1  0      
  8  9  2  0      
  9 10  1  0      
 10 11  1  0      
 10 12  2  0      
  2 12  1  0      
M  END
$$$$
sidechains.sdf
  ChemDraw12171923412D

 15 17  0  0  0  0  0  0  0  0999 V2000
    2.1434    0.8250    0.0000 C   0  0  0  0  0  0  0  0  0  0  0  0
    2.1434    0.0000    0.0000 C   0  0  0  0  0  0  0  0  0  0  0  0
    1.4289   -0.4125    0.0000 C   0  0  0  0  0  0  0  0  0  0  0  0
    0.7145    0.0000    0.0000 C   0  0  0  0  0  0  0  0  0  0  0  0
    0.7145    0.8250    0.0000 C   0  0  0  0  0  0  0  0  0  0  0  0
    1.4289    1.2375    0.0000 C   0  0  0  0  0  0  0  0  0  0  0  0
    0.0000   -0.4125    0.0000 S   0  0  0  0  0  0  0  0  0  0  0  0
   -0.7145    0.0000    0.0000 C   0  0  0  0  0  0  0  0  0  0  0  0
   -0.7145    0.8250    0.0000 C   0  0  0  0  0  0  0  0  0  0  0  0
    0.0000    1.2375    0.0000 N   0  0  0  0  0  0  0  0  0  0  0  0
   -1.4289   -0.4125    0.0000 C   0  0  0  0  0  0  0  0  0  0  0  0
   -2.1434    0.0000    0.0000 C   0  0  0  0  0  0  0  0  0  0  0  0
   -2.1434    0.8250    0.0000 C   0  0  0  0  0  0  0  0  0  0  0  0
   -1.4289    1.2375    0.0000 C   0  0  0  0  0  0  0  0  0  0  0  0
    1.4289   -1.2375    0.0000 C   0  0  0  0  0  0  0  0  0  0  0  0
  1  2  2  0      
  2  3  1  0      
  3  4  2  0      
  4  5  1  0      
  5  6  2  0      
  6  1  1  0      
  4  7  1  0      
  7  8  1  0      
  8  9  2  0      
  9 10  1  0      
 10  5  1  0      
  8 11  1  0      
 11 12  2  0      
 12 13  1  0      
 13 14  2  0      
 14  9  1  0      
  3 15  1  0      
M  END
$$$$
