templates.sdf
  ChemDraw06261919002D

 29 30  0  0  0  0  0  0  0  0999 V2000
   -3.1218    1.6559    0.0000 C   0  0  0  0  0  0  0  0  0  0  0  0
   -3.1218    0.8309    0.0000 C   0  0  0  0  0  0  0  0  0  0  0  0
   -2.4073    0.4184    0.0000 C   0  0  0  0  0  0  0  0  0  0  0  0
   -1.6928    0.8309    0.0000 C   0  0  0  0  0  0  0  0  0  0  0  0
   -1.6928    1.6559    0.0000 C   0  0  0  0  0  0  0  0  0  0  0  0
   -2.4073    2.0684    0.0000 C   0  0  0  0  0  0  0  0  0  0  0  0
   -0.9784    2.0684    0.0000 C   0  0  0  0  0  0  0  0  0  0  0  0
   -0.2639    1.6559    0.0000 C   0  0  0  0  0  0  0  0  0  0  0  0
    0.4506    2.0684    0.0000 C   0  0  0  0  0  0  0  0  0  0  0  0
    1.1651    1.6559    0.0000 O   0  0  0  0  0  0  0  0  0  0  0  0
    0.4506    2.8934    0.0000 O   0  0  0  0  0  0  0  0  0  0  0  0
    1.8795    2.0684    0.0000 N   0  0  0  0  0  0  0  0  0  0  0  0
   -2.4073   -0.4066    0.0000 C   0  0  0  0  0  0  0  0  0  0  0  0
   -1.6928   -0.8191    0.0000 C   0  0  0  0  0  0  0  0  0  0  0  0
   -1.6928   -1.6441    0.0000 C   0  0  0  0  0  0  0  0  0  0  0  0
   -0.9784   -2.0566    0.0000 O   0  0  0  0  0  0  0  0  0  0  0  0
   -0.9784   -2.8816    0.0000 C   0  0  0  0  0  0  0  0  0  0  0  0
   -0.2639   -3.2941    0.0000 O   0  0  0  0  0  0  0  0  0  0  0  0
   -1.6928   -3.2941    0.0000 O   0  0  0  0  0  0  0  0  0  0  0  0
    0.4506   -2.8816    0.0000 C   0  0  0  0  0  0  0  0  0  0  0  0
    1.1651   -3.2941    0.0000 C   0  0  0  0  0  0  0  0  0  0  0  0
    0.4506   -2.0566    0.0000 C   0  0  0  0  0  0  0  0  0  0  0  0
    1.1651   -2.4691    0.0000 C   0  0  0  0  0  0  0  0  0  0  0  0
    2.7010    1.9917    0.0000 C   0  0  0  0  0  0  0  0  0  0  0  0
    3.0277    2.7493    0.0000 C   0  0  0  0  0  0  0  0  0  0  0  0
    2.4082    3.2941    0.0000 C   0  0  0  0  0  0  0  0  0  0  0  0
    1.6986    2.8733    0.0000 C   0  0  0  0  0  0  0  0  0  0  0  0
    3.1218    1.2821    0.0000 O   0  0  0  0  0  0  0  0  0  0  0  0
    0.9411    3.2000    0.0000 O   0  0  0  0  0  0  0  0  0  0  0  0
  1  2  2  0      
  2  3  1  0      
  3  4  2  0      
  4  5  1  0      
  5  6  2  0      
  6  1  1  0      
  5  7  1  0      
  7  8  1  0      
  8  9  1  0      
  9 10  1  0      
  9 11  2  0      
 10 12  1  0      
  3 13  1  0      
 13 14  2  0      
 14 15  1  0      
 15 16  1  0      
 16 17  1  0      
 17 18  1  0      
 17 19  2  0      
 18 20  1  0      
 20 21  1  0      
 20 22  1  0      
 20 23  1  0      
 12 24  1  0      
 24 25  1  0      
 25 26  1  0      
 26 27  1  0      
 27 12  1  0      
 24 28  2  0      
 27 29  2  0      
M  END
$$$$
templates.sdf
  ChemDraw06261919002D

 33 34  0  0  1  0  0  0  0  0999 V2000
   -3.9296    0.2738    0.0000 C   0  0  0  0  0  0  0  0  0  0  0  0
   -3.9296    1.0987    0.0000 C   0  0  0  0  0  0  0  0  0  0  0  0
   -4.6441    0.6863    0.0000 C   0  0  0  0  0  0  0  0  0  0  0  0
   -4.6441    1.5113    0.0000 C   0  0  0  0  0  0  0  0  0  0  0  0
   -3.2151    1.5113    0.0000 O   0  0  0  0  0  0  0  0  0  0  0  0
   -2.5006    1.0987    0.0000 C   0  0  0  0  0  0  0  0  0  0  0  0
   -2.5006    0.2738    0.0000 O   0  0  0  0  0  0  0  0  0  0  0  0
   -1.7862    1.5113    0.0000 O   0  0  0  0  0  0  0  0  0  0  0  0
   -1.0718    1.0987    0.0000 C   0  0  0  0  0  0  0  0  0  0  0  0
   -0.3573    1.5113    0.0000 C   0  0  0  0  0  0  0  0  0  0  0  0
    0.3572    1.0987    0.0000 C   0  0  0  0  0  0  0  0  0  0  0  0
    1.0717    1.5113    0.0000 C   0  0  0  0  0  0  0  0  0  0  0  0
    1.0717    2.3363    0.0000 C   0  0  0  0  0  0  0  0  0  0  0  0
    1.7862    2.7487    0.0000 C   0  0  0  0  0  0  0  0  0  0  0  0
    2.5007    2.3363    0.0000 C   0  0  0  0  0  0  0  0  0  0  0  0
    3.2151    2.7488    0.0000 F   0  0  0  0  0  0  0  0  0  0  0  0
    2.5007    1.5113    0.0000 C   0  0  0  0  0  0  0  0  0  0  0  0
    3.2151    1.0987    0.0000 C   0  0  0  0  0  0  0  0  0  0  0  0
    3.2151    0.2738    0.0000 C   0  0  0  0  0  0  0  0  0  0  0  0
    3.9295   -0.1387    0.0000 C   0  0  0  0  0  0  0  0  0  0  0  0
    4.6440    0.2738    0.0000 C   0  0  0  0  0  0  0  0  0  0  0  0
    4.6441    1.0987    0.0000 O   0  0  0  0  0  0  0  0  0  0  0  0
    2.5007   -0.1387    0.0000 C   0  0  0  0  0  0  0  0  0  0  0  0
    1.7862    0.2738    0.0000 O   0  0  0  0  0  0  0  0  0  0  0  0
    1.7862    1.0987    0.0000 C   0  0  0  0  0  0  0  0  0  0  0  0
    2.5007   -0.9637    0.0000 O   0  0  0  0  0  0  0  0  0  0  0  0
    1.7862   -1.3761    0.0000 N   0  0  0  0  0  0  0  0  0  0  0  0
    1.6999   -2.1967    0.0000 C   0  0  0  0  0  0  0  0  0  0  0  0
    0.8929   -2.3682    0.0000 C   0  0  0  0  0  0  0  0  0  0  0  0
    0.4805   -1.6537    0.0000 C   0  0  0  0  0  0  0  0  0  0  0  0
    1.0325   -1.0406    0.0000 C   0  0  0  0  0  0  0  0  0  0  0  0
    2.3129   -2.7488    0.0000 O   0  0  0  0  0  0  0  0  0  0  0  0
    0.8610   -0.2337    0.0000 O   0  0  0  0  0  0  0  0  0  0  0  0
  1  2  1  0      
  2  3  1  0      
  2  4  1  0      
  2  5  1  0      
  5  6  1  0      
  6  7  2  0      
  6  8  1  0      
  8  9  1  0      
  9 10  1  0      
 10 11  2  0      
 11 12  1  0      
 12 13  4  0      
 13 14  4  0      
 14 15  4  0      
 15 16  1  0      
 15 17  4  0      
 17 18  1  0      
 19 18  1  1      
 19 20  1  0      
 20 21  1  0      
 21 22  2  0      
 19 23  1  0      
 23 24  2  0      
 17 25  4  0      
 12 25  4  0      
 26 27  1  0      
 27 28  1  0      
 28 29  1  0      
 29 30  1  0      
 30 31  1  0      
 31 27  1  0      
 28 32  2  0      
 31 33  2  0      
 23 26  1  0      
M  END
$$$$
templates.sdf
  ChemDraw06261919002D

 37 38  0  0  1  0  0  0  0  0999 V2000
    3.1545    3.8615    0.0000 C   0  0  0  0  0  0  0  0  0  0  0  0
    3.5664    3.1482    0.0000 C   0  0  0  0  0  0  0  0  0  0  0  0
    3.9782    2.4349    0.0000 C   0  0  0  0  0  0  0  0  0  0  0  0
    3.5664    1.7217    0.0000 C   0  0  0  0  0  0  0  0  0  0  0  0
    3.9782    1.0084    0.0000 C   0  0  0  0  0  0  0  0  0  0  0  0
    3.5664    0.2951    0.0000 C   0  0  0  0  0  0  0  0  0  0  0  0
    3.1545   -0.4182    0.0000 C   0  0  0  0  0  0  0  0  0  0  0  0
    3.5664   -1.1315    0.0000 C   0  0  0  0  0  0  0  0  0  0  0  0
    4.3900   -1.1315    0.0000 O   0  0  0  0  0  0  0  0  0  0  0  0
    3.1545   -1.8447    0.0000 O   0  0  0  0  0  0  0  0  0  0  0  0
    3.5664   -2.5580    0.0000 N   0  0  0  0  0  0  0  0  0  0  0  0
    4.3855   -2.6442    0.0000 C   0  0  0  0  0  0  0  0  0  0  0  0
    4.9366   -2.0321    0.0000 O   0  0  0  0  0  0  0  0  0  0  0  0
    4.5567   -3.4498    0.0000 C   0  0  0  0  0  0  0  0  0  0  0  0
    3.8435   -3.8615    0.0000 C   0  0  0  0  0  0  0  0  0  0  0  0
    3.2314   -3.3103    0.0000 C   0  0  0  0  0  0  0  0  0  0  0  0
    2.4258   -3.4816    0.0000 O   0  0  0  0  0  0  0  0  0  0  0  0
    2.8531    0.7069    0.0000 C   0  0  0  0  0  0  0  0  0  0  0  0
    2.1398    0.2951    0.0000 C   0  0  0  0  0  0  0  0  0  0  0  0
    2.1398   -0.5286    0.0000 C   0  0  0  0  0  0  0  0  0  0  0  0
    1.4265   -0.9404    0.0000 C   0  0  0  0  0  0  0  0  0  0  0  0
    0.7133   -0.5286    0.0000 C   0  0  0  0  0  0  0  0  0  0  0  0
    0.7133    0.2951    0.0000 C   0  0  0  0  0  0  0  0  0  0  0  0
    0.0000    0.7069    0.0000 C   0  0  0  0  0  0  0  0  0  0  0  0
   -0.7132    0.2951    0.0000 C   0  0  0  0  0  0  0  0  0  0  0  0
   -1.4265    0.7069    0.0000 C   0  0  0  0  0  0  0  0  0  0  0  0
   -2.1398    0.2951    0.0000 O   0  0  0  0  0  0  0  0  0  0  0  0
   -2.8531    0.7069    0.0000 C   0  0  0  0  0  0  0  0  0  0  0  0
   -2.8531    1.5305    0.0000 O   0  0  0  0  0  0  0  0  0  0  0  0
   -3.5664    0.2951    0.0000 O   0  0  0  0  0  0  0  0  0  0  0  0
    1.4265    0.7069    0.0000 C   0  0  0  0  0  0  0  0  0  0  0  0
    4.2796   -0.1167    0.0000 C   0  0  0  0  0  0  0  0  0  0  0  0
    4.9929    0.2951    0.0000 O   0  0  0  0  0  0  0  0  0  0  0  0
   -4.9929    0.2951    0.0000 C   0  0  0  0  0  0  0  0  0  0  0  0
   -4.2796    0.7069    0.0000 C   0  0  0  0  0  0  0  0  0  0  0  0
   -4.9929    1.1187    0.0000 C   0  0  0  0  0  0  0  0  0  0  0  0
   -4.2796    1.5305    0.0000 C   0  0  0  0  0  0  0  0  0  0  0  0
  1  2  3  0      
  2  3  1  0      
  3  4  1  0      
  4  5  1  0      
  5  6  1  0      
  6  7  1  0      
  7  8  1  0      
  8  9  2  0      
  8 10  1  0      
 10 11  1  0      
 11 12  1  0      
 12 13  2  0      
 12 14  1  0      
 14 15  1  0      
 15 16  1  0      
 11 16  1  0      
 16 17  2  0      
  6 18  1  6      
 18 19  1  0      
 19 20  4  0      
 20 21  4  0      
 21 22  4  0      
 22 23  4  0      
 23 24  1  0      
 24 25  2  0      
 25 26  1  0      
 26 27  1  0      
 27 28  1  0      
 28 29  2  0      
 28 30  1  0      
 23 31  4  0      
 19 31  4  0      
  6 32  1  6      
 32 33  2  0      
 34 35  1  0      
 35 36  1  0      
 35 37  1  0      
 30 35  1  0      
M  END
$$$$
